  
       XFOIL         Version 6.99
  
 Calculated polar for: NACA 1408                                       
  
 1 1 Reynolds number fixed          Mach number fixed         
  
 xtrf =   1.000 (top)        1.000 (bottom)  
 Mach =   0.000     Re =     6.000 e 6     Ncrit =   9.000
  
   alpha    CL        CD       CDp       CM     Top_Xtr  Bot_Xtr
  ------ -------- --------- --------- -------- -------- --------
 -10.000  -0.9944   0.01012   0.00616  -0.0254   1.0000   0.0044
  -9.900  -0.9843   0.00999   0.00602  -0.0253   1.0000   0.0044
  -9.800  -0.9743   0.00987   0.00590  -0.0251   1.0000   0.0045
  -9.700  -0.9643   0.00975   0.00577  -0.0249   1.0000   0.0046
  -9.600  -0.9543   0.00963   0.00565  -0.0247   1.0000   0.0046
  -9.500  -0.9444   0.00952   0.00554  -0.0245   1.0000   0.0047
  -9.400  -0.9345   0.00941   0.00542  -0.0243   1.0000   0.0047
  -9.300  -0.9246   0.00930   0.00530  -0.0241   1.0000   0.0048
  -9.200  -0.9148   0.00920   0.00520  -0.0238   1.0000   0.0048
  -9.100  -0.9050   0.00909   0.00509  -0.0236   1.0000   0.0049
  -9.000  -0.8953   0.00899   0.00497  -0.0233   1.0000   0.0050
  -8.900  -0.8856   0.00889   0.00487  -0.0231   1.0000   0.0050
  -8.800  -0.8759   0.00880   0.00478  -0.0228   1.0000   0.0050
  -8.700  -0.8646   0.00870   0.00468  -0.0228   0.9999   0.0051
  -8.600  -0.8524   0.00860   0.00458  -0.0231   0.9997   0.0052
  -8.500  -0.8403   0.00851   0.00447  -0.0234   0.9995   0.0052
  -8.400  -0.8280   0.00842   0.00438  -0.0237   0.9992   0.0052
  -8.300  -0.8158   0.00833   0.00429  -0.0240   0.9990   0.0053
  -8.200  -0.8035   0.00824   0.00420  -0.0243   0.9986   0.0053
  -8.100  -0.7912   0.00815   0.00411  -0.0246   0.9983   0.0053
  -8.000  -0.7789   0.00807   0.00403  -0.0249   0.9979   0.0053
  -7.900  -0.7665   0.00800   0.00396  -0.0252   0.9976   0.0053
  -7.800  -0.7543   0.00784   0.00377  -0.0255   0.9972   0.0056
  -7.700  -0.7419   0.00770   0.00362  -0.0258   0.9968   0.0060
  -7.600  -0.7294   0.00759   0.00351  -0.0261   0.9964   0.0063
  -7.500  -0.7168   0.00748   0.00341  -0.0265   0.9960   0.0065
  -7.400  -0.7042   0.00739   0.00331  -0.0268   0.9954   0.0067
  -7.300  -0.6915   0.00730   0.00323  -0.0272   0.9949   0.0068
  -7.200  -0.6788   0.00721   0.00314  -0.0276   0.9943   0.0070
  -7.100  -0.6678   0.00713   0.00306  -0.0276   0.9927   0.0072
  -7.000  -0.6565   0.00706   0.00299  -0.0277   0.9910   0.0073
  -6.900  -0.6448   0.00699   0.00292  -0.0278   0.9894   0.0074
  -6.800  -0.6330   0.00692   0.00285  -0.0279   0.9877   0.0075
  -6.700  -0.6212   0.00685   0.00278  -0.0281   0.9859   0.0076
  -6.600  -0.6094   0.00679   0.00272  -0.0283   0.9842   0.0077
  -6.500  -0.5981   0.00673   0.00266  -0.0283   0.9823   0.0077
  -6.400  -0.5873   0.00668   0.00261  -0.0282   0.9802   0.0078
  -6.300  -0.5764   0.00663   0.00255  -0.0282   0.9777   0.0078
  -6.200  -0.5657   0.00654   0.00245  -0.0280   0.9747   0.0083
  -6.100  -0.5551   0.00645   0.00235  -0.0279   0.9717   0.0091
  -6.000  -0.5443   0.00638   0.00228  -0.0278   0.9691   0.0095
  -5.900  -0.5335   0.00631   0.00222  -0.0277   0.9664   0.0100
  -5.800  -0.5227   0.00626   0.00216  -0.0276   0.9631   0.0102
  -5.700  -0.5121   0.00621   0.00211  -0.0275   0.9591   0.0105
  -5.600  -0.5014   0.00616   0.00205  -0.0274   0.9555   0.0107
  -5.500  -0.4904   0.00611   0.00200  -0.0273   0.9524   0.0108
  -5.400  -0.4795   0.00607   0.00196  -0.0272   0.9481   0.0109
  -5.300  -0.4688   0.00604   0.00191  -0.0271   0.9434   0.0110
  -5.200  -0.4580   0.00598   0.00183  -0.0270   0.9394   0.0119
  -5.100  -0.4470   0.00592   0.00177  -0.0270   0.9349   0.0128
  -5.000  -0.4363   0.00587   0.00171  -0.0269   0.9295   0.0135
  -4.900  -0.4253   0.00582   0.00166  -0.0268   0.9249   0.0141
  -4.800  -0.4143   0.00578   0.00161  -0.0268   0.9198   0.0146
  -4.700  -0.4034   0.00575   0.00157  -0.0267   0.9142   0.0149
  -4.600  -0.3923   0.00572   0.00152  -0.0267   0.9092   0.0150
  -4.500  -0.3813   0.00568   0.00147  -0.0266   0.9028   0.0160
  -4.400  -0.3704   0.00564   0.00142  -0.0265   0.8969   0.0175
  -4.300  -0.3593   0.00559   0.00137  -0.0265   0.8909   0.0189
  -4.200  -0.3484   0.00557   0.00133  -0.0264   0.8836   0.0198
  -4.100  -0.3372   0.00554   0.00129  -0.0264   0.8774   0.0203
  -4.000  -0.3262   0.00552   0.00125  -0.0264   0.8702   0.0212
  -3.900  -0.3150   0.00548   0.00120  -0.0264   0.8638   0.0236
  -3.800  -0.3040   0.00544   0.00116  -0.0263   0.8557   0.0253
  -3.700  -0.2929   0.00541   0.00112  -0.0263   0.8490   0.0267
  -3.500  -0.2706   0.00537   0.00105  -0.0263   0.8326   0.0301
  -3.400  -0.2595   0.00534   0.00101  -0.0263   0.8247   0.0330
  -3.300  -0.2484   0.00531   0.00097  -0.0262   0.8160   0.0354
  -3.200  -0.2372   0.00529   0.00094  -0.0262   0.8078   0.0375
  -3.100  -0.2261   0.00527   0.00091  -0.0262   0.7987   0.0421
  -3.000  -0.2149   0.00524   0.00088  -0.0262   0.7898   0.0455
  -2.900  -0.2038   0.00523   0.00085  -0.0262   0.7807   0.0474
  -2.800  -0.1926   0.00520   0.00082  -0.0262   0.7717   0.0528
  -2.700  -0.1814   0.00517   0.00079  -0.0262   0.7626   0.0576
  -2.600  -0.1703   0.00517   0.00076  -0.0262   0.7529   0.0607
  -2.500  -0.1591   0.00512   0.00073  -0.0262   0.7439   0.0694
  -2.400  -0.1479   0.00511   0.00070  -0.0262   0.7340   0.0744
  -2.300  -0.1368   0.00508   0.00068  -0.0262   0.7240   0.0825
  -2.200  -0.1256   0.00507   0.00066  -0.0262   0.7138   0.0868
  -2.100  -0.1145   0.00504   0.00063  -0.0262   0.7041   0.0960
  -2.000  -0.1033   0.00501   0.00061  -0.0262   0.6944   0.1064
  -1.900  -0.0922   0.00500   0.00059  -0.0262   0.6830   0.1142
  -1.800  -0.0810   0.00497   0.00057  -0.0262   0.6744   0.1245
  -1.700  -0.0698   0.00495   0.00055  -0.0262   0.6639   0.1333
  -1.600  -0.0587   0.00494   0.00054  -0.0262   0.6531   0.1415
  -1.500  -0.0475   0.00491   0.00052  -0.0263   0.6429   0.1545
  -1.400  -0.0363   0.00488   0.00050  -0.0263   0.6334   0.1680
  -1.300  -0.0252   0.00487   0.00048  -0.0263   0.6224   0.1784
  -1.200  -0.0140   0.00485   0.00047  -0.0263   0.6126   0.1898
  -1.100  -0.0029   0.00482   0.00046  -0.0263   0.6010   0.2056
  -1.000   0.0083   0.00481   0.00045  -0.0263   0.5913   0.2176
  -0.900   0.0195   0.00480   0.00044  -0.0263   0.5819   0.2270
  -0.800   0.0306   0.00478   0.00044  -0.0264   0.5705   0.2421
  -0.700   0.0418   0.00476   0.00043  -0.0264   0.5600   0.2564
  -0.600   0.0530   0.00475   0.00042  -0.0264   0.5497   0.2705
  -0.500   0.0641   0.00474   0.00042  -0.0264   0.5389   0.2838
  -0.400   0.0753   0.00472   0.00041  -0.0264   0.5282   0.2999
  -0.300   0.0864   0.00470   0.00041  -0.0265   0.5192   0.3174
  -0.200   0.0976   0.00470   0.00041  -0.0265   0.5087   0.3288
  -0.100   0.1088   0.00468   0.00041  -0.0265   0.4978   0.3452
   0.000   0.1199   0.00467   0.00041  -0.0265   0.4871   0.3603
   0.100   0.1310   0.00466   0.00041  -0.0265   0.4763   0.3791
   0.200   0.1422   0.00465   0.00041  -0.0266   0.4663   0.3944
   0.300   0.1533   0.00461   0.00042  -0.0266   0.4568   0.4183
   0.400   0.1644   0.00460   0.00042  -0.0266   0.4465   0.4367
   0.500   0.1755   0.00460   0.00042  -0.0266   0.4348   0.4529
   0.600   0.1866   0.00456   0.00043  -0.0266   0.4257   0.4793
   0.700   0.1977   0.00456   0.00044  -0.0266   0.4139   0.4962
   0.800   0.2088   0.00456   0.00045  -0.0267   0.4030   0.5150
   0.900   0.2198   0.00457   0.00046  -0.0267   0.3907   0.5319
   1.000   0.2308   0.00457   0.00047  -0.0267   0.3775   0.5529
   1.100   0.2419   0.00458   0.00049  -0.0267   0.3651   0.5693
   1.200   0.2529   0.00458   0.00051  -0.0267   0.3516   0.5907
   1.300   0.2640   0.00460   0.00052  -0.0267   0.3391   0.6066
   1.400   0.2750   0.00461   0.00054  -0.0267   0.3263   0.6234
   1.500   0.2859   0.00464   0.00056  -0.0267   0.3111   0.6408
   1.600   0.2969   0.00467   0.00059  -0.0267   0.2953   0.6589
   1.700   0.3078   0.00470   0.00061  -0.0267   0.2796   0.6778
   1.800   0.3188   0.00472   0.00064  -0.0266   0.2678   0.6943
   1.900   0.3297   0.00473   0.00066  -0.0266   0.2544   0.7137
   2.000   0.3406   0.00477   0.00070  -0.0266   0.2395   0.7295
   2.100   0.3514   0.00482   0.00073  -0.0266   0.2221   0.7475
   2.200   0.3624   0.00484   0.00076  -0.0265   0.2109   0.7647
   2.300   0.3733   0.00487   0.00079  -0.0265   0.1983   0.7822
   2.400   0.3839   0.00494   0.00083  -0.0264   0.1775   0.7997
   2.500   0.3947   0.00498   0.00087  -0.0264   0.1654   0.8170
   2.600   0.4055   0.00502   0.00091  -0.0263   0.1511   0.8331
   2.700   0.4162   0.00505   0.00095  -0.0262   0.1401   0.8518
   2.800   0.4269   0.00509   0.00099  -0.0262   0.1288   0.8673
   3.100   0.4585   0.00522   0.00112  -0.0258   0.0960   0.9114
   3.200   0.4687   0.00528   0.00117  -0.0256   0.0845   0.9254
   3.300   0.4790   0.00530   0.00121  -0.0253   0.0798   0.9378
   3.400   0.4890   0.00537   0.00126  -0.0250   0.0691   0.9490
   3.500   0.4991   0.00540   0.00130  -0.0248   0.0651   0.9589
   3.600   0.5091   0.00547   0.00135  -0.0245   0.0574   0.9680
   3.700   0.5196   0.00550   0.00139  -0.0243   0.0543   0.9756
   3.800   0.5305   0.00558   0.00144  -0.0242   0.0491   0.9819
   3.900   0.5426   0.00563   0.00148  -0.0245   0.0443   0.9860
   4.000   0.5550   0.00570   0.00153  -0.0248   0.0408   0.9897
   4.100   0.5670   0.00578   0.00158  -0.0250   0.0350   0.9929
   4.200   0.5795   0.00583   0.00162  -0.0253   0.0333   0.9948
   4.300   0.5926   0.00591   0.00167  -0.0257   0.0308   0.9962
   4.400   0.6055   0.00598   0.00172  -0.0262   0.0275   0.9974
   4.500   0.6185   0.00604   0.00177  -0.0266   0.0255   0.9986
   4.600   0.6314   0.00610   0.00182  -0.0270   0.0244   0.9996
   4.700   0.6433   0.00617   0.00187  -0.0272   0.0228   1.0000
   4.800   0.6538   0.00625   0.00193  -0.0271   0.0204   1.0000
   4.900   0.6645   0.00630   0.00198  -0.0270   0.0189   1.0000
   5.000   0.6752   0.00636   0.00203  -0.0269   0.0184   1.0000
   5.100   0.6859   0.00642   0.00208  -0.0268   0.0176   1.0000
   5.200   0.6966   0.00649   0.00214  -0.0267   0.0166   1.0000
   5.300   0.7073   0.00657   0.00220  -0.0266   0.0152   1.0000
   5.400   0.7181   0.00664   0.00226  -0.0266   0.0139   1.0000
   5.500   0.7290   0.00669   0.00231  -0.0265   0.0137   1.0000
   5.600   0.7398   0.00674   0.00237  -0.0265   0.0135   1.0000
   5.700   0.7507   0.00681   0.00242  -0.0264   0.0131   1.0000
   5.800   0.7615   0.00688   0.00248  -0.0263   0.0125   1.0000
   5.900   0.7723   0.00695   0.00255  -0.0263   0.0119   1.0000
   6.000   0.7830   0.00704   0.00262  -0.0262   0.0110   1.0000
   6.100   0.7938   0.00712   0.00271  -0.0261   0.0101   1.0000
   6.200   0.8047   0.00718   0.00277  -0.0261   0.0099   1.0000
   6.300   0.8155   0.00724   0.00282  -0.0261   0.0099   1.0000
   6.400   0.8264   0.00731   0.00288  -0.0260   0.0097   1.0000
   6.500   0.8373   0.00737   0.00295  -0.0260   0.0095   1.0000
   6.600   0.8481   0.00744   0.00301  -0.0259   0.0092   1.0000
   6.700   0.8589   0.00752   0.00309  -0.0259   0.0089   1.0000
   6.800   0.8696   0.00761   0.00316  -0.0258   0.0085   1.0000
   6.900   0.8804   0.00769   0.00324  -0.0258   0.0081   1.0000
   7.000   0.8910   0.00779   0.00334  -0.0257   0.0076   1.0000
   7.100   0.9017   0.00790   0.00346  -0.0256   0.0070   1.0000
   7.200   0.9125   0.00797   0.00353  -0.0256   0.0070   1.0000
   7.300   0.9233   0.00804   0.00360  -0.0255   0.0070   1.0000
   7.400   0.9341   0.00812   0.00367  -0.0255   0.0069   1.0000
   7.500   0.9448   0.00819   0.00374  -0.0255   0.0068   1.0000
   7.600   0.9556   0.00827   0.00382  -0.0254   0.0068   1.0000
   7.700   0.9663   0.00835   0.00390  -0.0254   0.0067   1.0000
   7.800   0.9770   0.00843   0.00398  -0.0253   0.0065   1.0000
   7.900   0.9877   0.00852   0.00407  -0.0253   0.0064   1.0000
   8.000   0.9984   0.00861   0.00416  -0.0252   0.0063   1.0000
   8.100   1.0090   0.00870   0.00425  -0.0251   0.0061   1.0000
   8.200   1.0196   0.00880   0.00434  -0.0251   0.0060   1.0000
   8.300   1.0302   0.00890   0.00444  -0.0250   0.0058   1.0000
   8.400   1.0407   0.00901   0.00455  -0.0249   0.0056   1.0000
   8.500   1.0512   0.00912   0.00467  -0.0248   0.0054   1.0000
   8.600   1.0616   0.00925   0.00480  -0.0247   0.0051   1.0000
   8.700   1.0718   0.00942   0.00499  -0.0246   0.0048   1.0000
   8.800   1.0821   0.00955   0.00513  -0.0245   0.0047   1.0000
   8.900   1.0927   0.00963   0.00521  -0.0244   0.0047   1.0000
   9.000   1.1033   0.00972   0.00530  -0.0244   0.0047   1.0000
   9.100   1.1138   0.00982   0.00540  -0.0243   0.0047   1.0000
   9.200   1.1243   0.00991   0.00550  -0.0242   0.0046   1.0000
   9.300   1.1347   0.01001   0.00560  -0.0241   0.0046   1.0000
   9.400   1.1452   0.01011   0.00571  -0.0241   0.0046   1.0000
   9.500   1.1556   0.01022   0.00582  -0.0240   0.0045   1.0000
   9.600   1.1660   0.01033   0.00593  -0.0239   0.0045   1.0000
   9.700   1.1763   0.01044   0.00604  -0.0238   0.0044   1.0000
   9.800   1.1866   0.01055   0.00616  -0.0237   0.0044   1.0000
   9.900   1.1969   0.01066   0.00628  -0.0236   0.0043   1.0000
  10.000   1.2072   0.01078   0.00640  -0.0235   0.0043   1.0000
  10.100   1.2175   0.01090   0.00652  -0.0234   0.0042   1.0000
  10.200   1.2277   0.01101   0.00664  -0.0233   0.0042   1.0000
  10.300   1.2379   0.01114   0.00677  -0.0232   0.0041   1.0000
  10.400   1.2480   0.01127   0.00690  -0.0231   0.0040   1.0000
  10.500   1.2581   0.01140   0.00704  -0.0230   0.0040   1.0000
  10.600   1.2682   0.01154   0.00718  -0.0229   0.0039   1.0000
  10.700   1.2782   0.01167   0.00732  -0.0228   0.0039   1.0000
  10.800   1.2882   0.01181   0.00747  -0.0226   0.0038   1.0000
  10.900   1.2981   0.01196   0.00762  -0.0225   0.0037   1.0000
  11.000   1.3080   0.01212   0.00778  -0.0223   0.0037   1.0000
  11.100   1.3178   0.01228   0.00795  -0.0222   0.0036   1.0000
  11.200   1.3276   0.01244   0.00812  -0.0220   0.0035   1.0000
  11.300   1.3373   0.01261   0.00831  -0.0219   0.0034   1.0000
  11.400   1.3469   0.01279   0.00850  -0.0217   0.0034   1.0000
  11.500   1.3564   0.01298   0.00871  -0.0215   0.0033   1.0000
  11.600   1.3659   0.01319   0.00893  -0.0213   0.0032   1.0000
  11.700   1.3751   0.01341   0.00918  -0.0210   0.0031   1.0000
  11.800   1.3842   0.01367   0.00946  -0.0208   0.0030   1.0000
  11.900   1.3927   0.01398   0.00982  -0.0205   0.0029   1.0000
  12.000   1.4023   0.01414   0.00999  -0.0203   0.0029   1.0000
  12.100   1.4120   0.01429   0.01014  -0.0201   0.0029   1.0000
  12.200   1.4216   0.01443   0.01030  -0.0200   0.0029   1.0000
  12.300   1.4311   0.01459   0.01047  -0.0198   0.0029   1.0000
  12.400   1.4407   0.01474   0.01063  -0.0196   0.0029   1.0000
  12.500   1.4501   0.01491   0.01080  -0.0195   0.0029   1.0000
  12.600   1.4596   0.01506   0.01095  -0.0193   0.0029   1.0000
  12.700   1.4689   0.01523   0.01114  -0.0191   0.0029   1.0000
  12.800   1.4783   0.01539   0.01130  -0.0189   0.0029   1.0000
  12.900   1.4876   0.01556   0.01149  -0.0187   0.0029   1.0000
  13.000   1.4968   0.01574   0.01167  -0.0185   0.0028   1.0000
  13.100   1.5059   0.01591   0.01186  -0.0183   0.0028   1.0000
  13.200   1.5150   0.01610   0.01205  -0.0181   0.0028   1.0000
  13.300   1.5241   0.01628   0.01224  -0.0178   0.0028   1.0000
  13.400   1.5330   0.01647   0.01244  -0.0176   0.0028   1.0000
  13.500   1.5419   0.01666   0.01265  -0.0174   0.0028   1.0000
  13.600   1.5507   0.01686   0.01286  -0.0171   0.0028   1.0000
  13.700   1.5594   0.01707   0.01308  -0.0168   0.0027   1.0000
  13.800   1.5680   0.01728   0.01330  -0.0166   0.0027   1.0000
  13.900   1.5766   0.01749   0.01353  -0.0163   0.0027   1.0000
  14.000   1.5850   0.01771   0.01377  -0.0160   0.0027   1.0000
  14.100   1.5933   0.01794   0.01401  -0.0157   0.0027   1.0000
  14.200   1.6016   0.01817   0.01426  -0.0154   0.0026   1.0000
  14.300   1.6098   0.01841   0.01451  -0.0151   0.0026   1.0000
  14.400   1.6178   0.01865   0.01477  -0.0147   0.0026   1.0000
  14.500   1.6257   0.01889   0.01503  -0.0144   0.0026   1.0000
  14.600   1.6336   0.01914   0.01530  -0.0140   0.0026   1.0000
  14.700   1.6412   0.01941   0.01558  -0.0136   0.0025   1.0000
  14.800   1.6488   0.01967   0.01586  -0.0132   0.0025   1.0000
  14.900   1.6562   0.01994   0.01615  -0.0128   0.0025   1.0000
  15.000   1.6635   0.02021   0.01644  -0.0124   0.0025   1.0000
  15.100   1.6707   0.02050   0.01674  -0.0120   0.0025   1.0000
  15.200   1.6777   0.02079   0.01705  -0.0115   0.0024   1.0000
  15.300   1.6844   0.02109   0.01737  -0.0111   0.0024   1.0000
  15.400   1.6910   0.02140   0.01770  -0.0106   0.0024   1.0000
  15.500   1.6975   0.02171   0.01803  -0.0101   0.0024   1.0000
  15.600   1.7036   0.02203   0.01838  -0.0095   0.0024   1.0000
  15.700   1.7098   0.02235   0.01872  -0.0090   0.0024   1.0000
  15.800   1.7155   0.02269   0.01908  -0.0084   0.0023   1.0000
  15.900   1.7210   0.02303   0.01945  -0.0078   0.0023   1.0000
  16.000   1.7262   0.02339   0.01983  -0.0071   0.0023   1.0000
  16.100   1.7310   0.02374   0.02020  -0.0064   0.0023   1.0000
  16.200   1.7341   0.02412   0.02060  -0.0054   0.0023   1.0000
  16.300   1.7369   0.02448   0.02099  -0.0044   0.0023   1.0000
  16.400   1.7390   0.02488   0.02141  -0.0033   0.0023   1.0000
  16.500   1.7412   0.02528   0.02184  -0.0022   0.0023   1.0000
  16.600   1.7429   0.02572   0.02231  -0.0012   0.0022   1.0000
  16.700   1.7444   0.02620   0.02282  -0.0002   0.0022   1.0000
  16.800   1.7460   0.02669   0.02333   0.0007   0.0022   1.0000
  16.900   1.7474   0.02721   0.02388   0.0016   0.0022   1.0000
  17.000   1.7485   0.02777   0.02447   0.0025   0.0022   1.0000
  17.100   1.7492   0.02838   0.02511   0.0033   0.0022   1.0000
  17.200   1.7500   0.02901   0.02577   0.0040   0.0022   1.0000
  17.300   1.7503   0.02970   0.02649   0.0047   0.0022   1.0000
  17.400   1.7510   0.03038   0.02721   0.0053   0.0022   1.0000
  17.500   1.7506   0.03120   0.02806   0.0059   0.0021   1.0000
  17.600   1.7505   0.03201   0.02891   0.0064   0.0021   1.0000
  17.700   1.7498   0.03291   0.02984   0.0068   0.0021   1.0000
  17.800   1.7491   0.03385   0.03082   0.0071   0.0021   1.0000
  17.900   1.7472   0.03496   0.03197   0.0073   0.0021   1.0000
  18.000   1.7462   0.03601   0.03305   0.0075   0.0021   1.0000
  18.100   1.7442   0.03721   0.03429   0.0075   0.0021   1.0000
  18.200   1.7421   0.03845   0.03557   0.0074   0.0021   1.0000
  18.300   1.7386   0.03994   0.03710   0.0072   0.0021   1.0000
  18.400   1.7367   0.04129   0.03849   0.0069   0.0021   1.0000
  18.500   1.7330   0.04290   0.04014   0.0065   0.0021   1.0000
  18.600   1.7285   0.04464   0.04193   0.0059   0.0021   1.0000
  18.700   1.7245   0.04641   0.04375   0.0053   0.0021   1.0000
  18.800   1.7198   0.04832   0.04569   0.0045   0.0021   1.0000
  18.900   1.7132   0.05057   0.04800   0.0035   0.0021   1.0000
  19.000   1.7061   0.05295   0.05043   0.0023   0.0020   1.0000
  19.100   1.6985   0.05543   0.05296   0.0011   0.0021   1.0000
  19.200   1.6904   0.05806   0.05564  -0.0003   0.0020   1.0000
  19.300   1.6807   0.06100   0.05863  -0.0019   0.0020   1.0000
  19.400   1.6693   0.06428   0.06197  -0.0037   0.0020   1.0000
  19.500   1.6542   0.06822   0.06597  -0.0058   0.0020   1.0000
  19.600   1.6443   0.07128   0.06908  -0.0075   0.0021   1.0000
  19.700   1.6256   0.07595   0.07382  -0.0101   0.0021   1.0000
  19.800   1.6088   0.08035   0.07829  -0.0126   0.0021   1.0000
  19.900   1.5890   0.08537   0.08337  -0.0154   0.0021   1.0000
  20.000   1.5618   0.09176   0.08985  -0.0189   0.0021   1.0000
