  
       XFOIL         Version 6.99
  
 Calculated polar for: NASA_sc_20412                                   
  
 1 1 Reynolds number fixed          Mach number fixed         
  
 xtrf =   1.000 (top)        1.000 (bottom)  
 Mach =   0.200     Re =    22.300 e 6     Ncrit =   9.000
  
   alpha    CL        CD       CDp       CM     Top_Xtr  Bot_Xtr
  ------ -------- --------- --------- -------- -------- --------
  -5.000  -0.3441   0.00566   0.00177  -0.0707   0.6846   0.0351
  -4.900  -0.3316   0.00566   0.00174  -0.0709   0.6720   0.0369
  -4.800  -0.3190   0.00564   0.00171  -0.0711   0.6620   0.0382
  -4.700  -0.3067   0.00568   0.00169  -0.0713   0.6379   0.0389
  -4.600  -0.2941   0.00567   0.00167  -0.0715   0.6309   0.0393
  -4.500  -0.2817   0.00567   0.00165  -0.0717   0.6199   0.0407
  -4.400  -0.2691   0.00565   0.00162  -0.0719   0.6131   0.0421
  -4.100  -0.2317   0.00568   0.00157  -0.0726   0.5683   0.0455
  -4.000  -0.2194   0.00571   0.00155  -0.0728   0.5489   0.0464
  -3.900  -0.2069   0.00573   0.00154  -0.0730   0.5326   0.0487
  -3.800  -0.1945   0.00576   0.00152  -0.0732   0.5095   0.0505
  -3.700  -0.1821   0.00579   0.00151  -0.0734   0.4884   0.0519
  -3.500  -0.1574   0.00586   0.00149  -0.0738   0.4460   0.0528
  -3.400  -0.1450   0.00588   0.00148  -0.0740   0.4306   0.0550
  -3.300  -0.1325   0.00589   0.00147  -0.0742   0.4190   0.0574
  -3.200  -0.1200   0.00589   0.00145  -0.0744   0.4078   0.0591
  -3.100  -0.1075   0.00589   0.00143  -0.0746   0.3958   0.0603
  -3.000  -0.0953   0.00595   0.00143  -0.0748   0.3712   0.0610
  -2.900  -0.0829   0.00596   0.00142  -0.0750   0.3599   0.0616
  -2.700  -0.0580   0.00600   0.00140  -0.0754   0.3272   0.0679
  -2.600  -0.0454   0.00598   0.00139  -0.0757   0.3232   0.0695
  -2.500  -0.0326   0.00596   0.00138  -0.0760   0.3133   0.0787
  -2.400  -0.0201   0.00596   0.00136  -0.0762   0.3063   0.0811
  -2.300  -0.0079   0.00601   0.00136  -0.0763   0.2850   0.0817
  -2.200   0.0045   0.00605   0.00136  -0.0765   0.2652   0.0856
  -2.100   0.0170   0.00604   0.00135  -0.0768   0.2587   0.0891
  -1.900   0.0418   0.00610   0.00134  -0.0772   0.2243   0.0946
  -1.800   0.0542   0.00612   0.00135  -0.0773   0.2131   0.0983
  -1.700   0.0667   0.00612   0.00134  -0.0776   0.2046   0.1030
  -1.600   0.0791   0.00614   0.00134  -0.0778   0.1929   0.1059
  -1.500   0.0916   0.00613   0.00133  -0.0780   0.1890   0.1087
  -1.400   0.1043   0.00614   0.00133  -0.0782   0.1735   0.1196
  -1.300   0.1168   0.00615   0.00133  -0.0784   0.1644   0.1279
  -1.200   0.1296   0.00612   0.00132  -0.0787   0.1586   0.1382
  -1.000   0.1548   0.00611   0.00132  -0.0792   0.1476   0.1543
  -0.900   0.1674   0.00610   0.00132  -0.0794   0.1436   0.1632
  -0.800   0.1800   0.00609   0.00131  -0.0797   0.1413   0.1692
  -0.700   0.1928   0.00608   0.00131  -0.0800   0.1334   0.1845
  -0.600   0.2052   0.00608   0.00132  -0.0801   0.1279   0.1884
  -0.500   0.2177   0.00608   0.00132  -0.0804   0.1244   0.1975
  -0.400   0.2303   0.00609   0.00133  -0.0806   0.1162   0.2082
  -0.300   0.2430   0.00607   0.00132  -0.0808   0.1121   0.2177
  -0.200   0.2554   0.00608   0.00133  -0.0810   0.1090   0.2261
  -0.100   0.2681   0.00607   0.00134  -0.0813   0.1043   0.2372
   0.000   0.2809   0.00604   0.00134  -0.0816   0.0998   0.2522
   0.200   0.3061   0.00601   0.00134  -0.0820   0.0981   0.2733
   0.300   0.3187   0.00603   0.00135  -0.0823   0.0928   0.2820
   0.400   0.3310   0.00605   0.00137  -0.0824   0.0863   0.2879
   0.500   0.3436   0.00604   0.00137  -0.0826   0.0835   0.2977
   0.600   0.3558   0.00608   0.00140  -0.0828   0.0781   0.3013
   0.800   0.3815   0.00603   0.00141  -0.0834   0.0717   0.3407
   1.000   0.4079   0.00593   0.00142  -0.0842   0.0646   0.3978
   1.100   0.4211   0.00588   0.00142  -0.0846   0.0630   0.4262
   1.200   0.4340   0.00585   0.00144  -0.0849   0.0602   0.4515
   1.300   0.4471   0.00581   0.00144  -0.0853   0.0570   0.4761
   1.400   0.4598   0.00579   0.00145  -0.0855   0.0560   0.4918
   1.500   0.4724   0.00579   0.00146  -0.0857   0.0550   0.5044
   1.600   0.4847   0.00581   0.00148  -0.0859   0.0526   0.5108
   1.700   0.4969   0.00584   0.00151  -0.0860   0.0501   0.5155
   1.800   0.5094   0.00585   0.00152  -0.0862   0.0487   0.5227
   1.900   0.5217   0.00586   0.00154  -0.0863   0.0483   0.5275
   2.000   0.5343   0.00585   0.00156  -0.0865   0.0478   0.5413
   2.100   0.5466   0.00587   0.00158  -0.0866   0.0468   0.5468
   2.200   0.5590   0.00588   0.00160  -0.0868   0.0458   0.5570
   2.300   0.5713   0.00590   0.00163  -0.0869   0.0444   0.5625
   2.400   0.5838   0.00591   0.00165  -0.0871   0.0429   0.5732
   2.500   0.5960   0.00593   0.00167  -0.0872   0.0421   0.5779
   2.600   0.6083   0.00594   0.00169  -0.0873   0.0418   0.5847
   2.700   0.6206   0.00596   0.00172  -0.0874   0.0415   0.5885
   2.800   0.6327   0.00599   0.00174  -0.0875   0.0408   0.5905
   2.900   0.6448   0.00603   0.00177  -0.0875   0.0400   0.5914
   3.000   0.6569   0.00607   0.00180  -0.0876   0.0391   0.5920
   3.100   0.6690   0.00611   0.00183  -0.0876   0.0382   0.5925
   3.200   0.6811   0.00614   0.00185  -0.0877   0.0370   0.5930
   3.300   0.6932   0.00617   0.00188  -0.0877   0.0363   0.5936
   3.400   0.7054   0.00620   0.00191  -0.0878   0.0362   0.5974
   3.500   0.7176   0.00622   0.00193  -0.0879   0.0360   0.6007
   3.600   0.7298   0.00625   0.00196  -0.0879   0.0357   0.6034
   3.700   0.7419   0.00629   0.00200  -0.0880   0.0344   0.6056
   3.800   0.7539   0.00634   0.00204  -0.0880   0.0330   0.6072
   3.900   0.7660   0.00639   0.00207  -0.0881   0.0316   0.6083
   4.000   0.7781   0.00642   0.00210  -0.0881   0.0310   0.6089
   4.100   0.7901   0.00646   0.00213  -0.0881   0.0307   0.6092
   4.200   0.8022   0.00651   0.00217  -0.0882   0.0300   0.6102
   4.300   0.8142   0.00656   0.00221  -0.0882   0.0288   0.6130
   4.400   0.8262   0.00661   0.00226  -0.0882   0.0273   0.6160
   4.500   0.8383   0.00665   0.00229  -0.0883   0.0265   0.6183
   4.600   0.8504   0.00668   0.00233  -0.0883   0.0261   0.6201
   4.700   0.8624   0.00673   0.00237  -0.0883   0.0255   0.6217
   4.800   0.8744   0.00679   0.00242  -0.0883   0.0247   0.6228
   4.900   0.8864   0.00684   0.00246  -0.0883   0.0237   0.6236
   5.000   0.8984   0.00689   0.00250  -0.0883   0.0228   0.6242
   5.100   0.9104   0.00693   0.00254  -0.0884   0.0225   0.6246
   5.200   0.9224   0.00698   0.00258  -0.0884   0.0222   0.6250
   5.300   0.9344   0.00703   0.00263  -0.0884   0.0219   0.6252
   5.400   0.9463   0.00708   0.00267  -0.0883   0.0214   0.6254
   5.500   0.9582   0.00714   0.00272  -0.0883   0.0209   0.6256
   5.600   0.9701   0.00720   0.00277  -0.0883   0.0202   0.6258
   5.700   0.9821   0.00725   0.00282  -0.0883   0.0195   0.6260
   5.800   0.9941   0.00730   0.00287  -0.0883   0.0190   0.6273
   5.900   1.0061   0.00735   0.00291  -0.0883   0.0190   0.6290
   6.000   1.0181   0.00739   0.00295  -0.0883   0.0189   0.6305
   6.100   1.0301   0.00744   0.00300  -0.0882   0.0187   0.6325
   6.200   1.0420   0.00749   0.00305  -0.0882   0.0185   0.6342
   6.300   1.0540   0.00754   0.00310  -0.0882   0.0182   0.6355
   6.400   1.0659   0.00761   0.00316  -0.0882   0.0178   0.6369
   6.500   1.0778   0.00767   0.00322  -0.0881   0.0173   0.6382
   6.600   1.0896   0.00774   0.00328  -0.0881   0.0168   0.6395
   6.700   1.1015   0.00780   0.00333  -0.0880   0.0162   0.6402
   6.800   1.1134   0.00785   0.00339  -0.0880   0.0158   0.6409
   6.900   1.1253   0.00791   0.00344  -0.0879   0.0157   0.6414
   7.000   1.1372   0.00796   0.00349  -0.0879   0.0156   0.6417
   7.100   1.1491   0.00802   0.00355  -0.0878   0.0155   0.6420
   7.200   1.1609   0.00809   0.00361  -0.0878   0.0153   0.6423
   7.300   1.1727   0.00815   0.00367  -0.0877   0.0150   0.6426
   7.400   1.1845   0.00822   0.00373  -0.0876   0.0147   0.6438
   7.500   1.1963   0.00830   0.00380  -0.0875   0.0144   0.6453
   7.600   1.2081   0.00837   0.00388  -0.0875   0.0140   0.6468
   7.700   1.2199   0.00844   0.00394  -0.0874   0.0136   0.6481
   7.800   1.2317   0.00851   0.00401  -0.0873   0.0132   0.6494
   7.900   1.2435   0.00858   0.00407  -0.0872   0.0129   0.6506
   8.000   1.2553   0.00864   0.00413  -0.0871   0.0129   0.6516
   8.100   1.2672   0.00870   0.00420  -0.0870   0.0128   0.6526
   8.200   1.2790   0.00876   0.00426  -0.0870   0.0128   0.6535
   8.300   1.2908   0.00883   0.00432  -0.0869   0.0127   0.6544
   8.400   1.3026   0.00890   0.00439  -0.0868   0.0126   0.6551
   8.500   1.3143   0.00896   0.00446  -0.0867   0.0126   0.6558
   8.600   1.3260   0.00904   0.00453  -0.0865   0.0124   0.6564
   8.700   1.3377   0.00912   0.00461  -0.0864   0.0123   0.6569
   8.800   1.3494   0.00920   0.00469  -0.0863   0.0121   0.6573
   8.900   1.3610   0.00928   0.00477  -0.0861   0.0119   0.6577
   9.000   1.3726   0.00937   0.00485  -0.0860   0.0117   0.6580
   9.100   1.3842   0.00946   0.00494  -0.0858   0.0116   0.6582
   9.200   1.3958   0.00955   0.00502  -0.0857   0.0113   0.6584
   9.300   1.4074   0.00963   0.00510  -0.0855   0.0111   0.6586
   9.400   1.4190   0.00972   0.00519  -0.0854   0.0109   0.6588
   9.500   1.4306   0.00981   0.00528  -0.0852   0.0107   0.6589
   9.600   1.4422   0.00989   0.00536  -0.0850   0.0106   0.6590
   9.700   1.4537   0.00998   0.00545  -0.0848   0.0104   0.6592
   9.800   1.4653   0.01007   0.00553  -0.0847   0.0103   0.6592
   9.900   1.4769   0.01015   0.00561  -0.0845   0.0103   0.6593
  10.000   1.4885   0.01023   0.00569  -0.0843   0.0103   0.6594
  10.100   1.5001   0.01031   0.00578  -0.0841   0.0103   0.6595
  10.200   1.5117   0.01039   0.00586  -0.0839   0.0103   0.6600
  10.300   1.5232   0.01047   0.00594  -0.0837   0.0103   0.6608
  10.400   1.5348   0.01056   0.00603  -0.0836   0.0103   0.6617
  10.500   1.5463   0.01064   0.00612  -0.0834   0.0103   0.6626
  10.600   1.5578   0.01073   0.00621  -0.0831   0.0103   0.6636
  10.700   1.5693   0.01082   0.00630  -0.0829   0.0103   0.6648
  10.800   1.5809   0.01090   0.00639  -0.0827   0.0102   0.6658
  10.900   1.5923   0.01099   0.00648  -0.0825   0.0102   0.6668
  11.000   1.6038   0.01108   0.00657  -0.0823   0.0102   0.6677
  11.100   1.6152   0.01118   0.00667  -0.0820   0.0102   0.6685
  11.200   1.6267   0.01127   0.00677  -0.0818   0.0101   0.6694
  11.300   1.6381   0.01137   0.00687  -0.0816   0.0101   0.6701
  11.400   1.6494   0.01147   0.00697  -0.0813   0.0100   0.6708
  11.500   1.6607   0.01157   0.00707  -0.0810   0.0100   0.6716
  11.600   1.6721   0.01167   0.00718  -0.0808   0.0099   0.6722
  11.700   1.6833   0.01177   0.00729  -0.0805   0.0099   0.6729
  11.800   1.6945   0.01188   0.00740  -0.0802   0.0098   0.6735
  11.900   1.7057   0.01200   0.00752  -0.0799   0.0097   0.6740
  12.000   1.7169   0.01211   0.00764  -0.0796   0.0097   0.6745
  12.100   1.7279   0.01224   0.00776  -0.0793   0.0096   0.6750
  12.200   1.7390   0.01236   0.00789  -0.0790   0.0095   0.6755
  12.300   1.7500   0.01249   0.00802  -0.0786   0.0094   0.6758
  12.400   1.7610   0.01262   0.00815  -0.0783   0.0093   0.6762
  12.500   1.7719   0.01275   0.00828  -0.0779   0.0092   0.6764
  12.600   1.7828   0.01288   0.00842  -0.0776   0.0091   0.6766
  12.800   1.8046   0.01315   0.00870  -0.0768   0.0089   0.6791
  12.900   1.8154   0.01328   0.00884  -0.0764   0.0088   0.6809
  13.000   1.8262   0.01342   0.00899  -0.0760   0.0087   0.6828
  13.100   1.8370   0.01356   0.00913  -0.0756   0.0086   0.6844
  13.200   1.8478   0.01370   0.00928  -0.0752   0.0085   0.6859
  13.300   1.8584   0.01384   0.00944  -0.0748   0.0084   0.6872
  13.400   1.8691   0.01398   0.00959  -0.0744   0.0084   0.6885
  13.500   1.8797   0.01414   0.00975  -0.0740   0.0083   0.6897
  13.600   1.8903   0.01428   0.00990  -0.0735   0.0082   0.6907
  13.700   1.9008   0.01443   0.01006  -0.0731   0.0082   0.6915
  13.800   1.9112   0.01458   0.01023  -0.0726   0.0082   0.6922
  13.900   1.9216   0.01474   0.01040  -0.0721   0.0081   0.6928
  14.000   1.9319   0.01491   0.01057  -0.0716   0.0081   0.6932
  14.100   1.9423   0.01505   0.01072  -0.0711   0.0081   0.6935
  14.200   1.9527   0.01520   0.01088  -0.0706   0.0081   0.6938
  14.300   1.9630   0.01535   0.01104  -0.0701   0.0081   0.6940
  14.400   1.9733   0.01550   0.01120  -0.0696   0.0081   0.6942
  14.500   1.9835   0.01565   0.01136  -0.0691   0.0081   0.6943
  14.600   1.9936   0.01581   0.01152  -0.0685   0.0081   0.6944
  14.700   2.0037   0.01597   0.01169  -0.0680   0.0081   0.6946
  14.800   2.0138   0.01613   0.01186  -0.0674   0.0080   0.6957
  14.900   2.0237   0.01629   0.01203  -0.0669   0.0080   0.6970
  15.000   2.0336   0.01645   0.01221  -0.0663   0.0080   0.6984
  15.100   2.0435   0.01661   0.01238  -0.0657   0.0080   0.6999
  15.200   2.0532   0.01679   0.01257  -0.0651   0.0080   0.7015
  15.300   2.0629   0.01695   0.01275  -0.0645   0.0080   0.7029
  15.400   2.0725   0.01713   0.01293  -0.0638   0.0080   0.7041
  15.500   2.0820   0.01730   0.01312  -0.0632   0.0080   0.7054
  15.600   2.0914   0.01748   0.01331  -0.0625   0.0080   0.7065
  15.700   2.1007   0.01766   0.01350  -0.0618   0.0080   0.7075
  15.800   2.1098   0.01785   0.01371  -0.0611   0.0080   0.7085
  15.900   2.1189   0.01804   0.01391  -0.0604   0.0080   0.7094
  16.000   2.1278   0.01823   0.01411  -0.0596   0.0080   0.7101
  16.100   2.1366   0.01842   0.01432  -0.0588   0.0080   0.7108
  16.200   2.1452   0.01863   0.01453  -0.0580   0.0080   0.7114
  16.300   2.1537   0.01883   0.01475  -0.0572   0.0080   0.7118
  16.400   2.1619   0.01904   0.01497  -0.0564   0.0080   0.7122
  16.500   2.1698   0.01925   0.01520  -0.0554   0.0080   0.7125
  16.600   2.1773   0.01947   0.01543  -0.0545   0.0080   0.7127
  16.700   2.1845   0.01967   0.01565  -0.0534   0.0079   0.7134
  16.800   2.1912   0.01990   0.01589  -0.0523   0.0079   0.7149
  16.900   2.1978   0.02012   0.01613  -0.0512   0.0079   0.7167
  17.000   2.2037   0.02035   0.01637  -0.0500   0.0079   0.7186
  17.100   2.2093   0.02059   0.01663  -0.0487   0.0079   0.7203
  17.200   2.2149   0.02083   0.01689  -0.0475   0.0079   0.7219
  17.300   2.2175   0.02107   0.01714  -0.0457   0.0079   0.7233
  17.400   2.2204   0.02135   0.01745  -0.0440   0.0079   0.7247
  17.500   2.2240   0.02163   0.01775  -0.0425   0.0078   0.7260
  17.600   2.2282   0.02192   0.01806  -0.0411   0.0078   0.7271
  17.700   2.2321   0.02225   0.01840  -0.0397   0.0078   0.7281
  17.800   2.2363   0.02257   0.01874  -0.0384   0.0078   0.7289
  17.900   2.2404   0.02290   0.01909  -0.0371   0.0078   0.7296
  18.000   2.2444   0.02325   0.01946  -0.0358   0.0078   0.7301
  18.100   2.2486   0.02361   0.01984  -0.0346   0.0078   0.7306
  18.200   2.2521   0.02402   0.02027  -0.0333   0.0078   0.7309
  18.300   2.2564   0.02439   0.02066  -0.0321   0.0077   0.7320
  18.400   2.2600   0.02480   0.02108  -0.0309   0.0077   0.7340
  18.500   2.2635   0.02523   0.02154  -0.0297   0.0077   0.7364
  18.600   2.2669   0.02568   0.02202  -0.0286   0.0076   0.7383
  18.700   2.2703   0.02615   0.02250  -0.0274   0.0076   0.7402
  18.800   2.2739   0.02662   0.02300  -0.0263   0.0076   0.7418
  18.900   2.2766   0.02714   0.02354  -0.0252   0.0076   0.7433
  19.000   2.2797   0.02765   0.02408  -0.0241   0.0076   0.7447
  19.100   2.2820   0.02822   0.02466  -0.0231   0.0076   0.7458
  19.200   2.2846   0.02879   0.02526  -0.0220   0.0075   0.7467
  19.300   2.2871   0.02938   0.02588  -0.0210   0.0075   0.7474
  19.400   2.2894   0.03001   0.02652  -0.0200   0.0075   0.7480
  19.500   2.2912   0.03067   0.02721  -0.0191   0.0075   0.7484
  19.600   2.2928   0.03136   0.02792  -0.0181   0.0075   0.7488
  19.700   2.2945   0.03205   0.02864  -0.0172   0.0074   0.7501
  19.800   2.2954   0.03281   0.02942  -0.0163   0.0074   0.7522
  19.900   2.2966   0.03358   0.03022  -0.0155   0.0074   0.7543
  20.000   2.2969   0.03443   0.03110  -0.0147   0.0074   0.7562
  20.100   2.2982   0.03523   0.03192  -0.0140   0.0074   0.7578
  20.200   2.2984   0.03613   0.03285  -0.0132   0.0074   0.7593
  20.300   2.2984   0.03707   0.03381  -0.0126   0.0073   0.7607
  20.400   2.2980   0.03805   0.03483  -0.0119   0.0073   0.7619
  20.500   2.2975   0.03904   0.03584  -0.0113   0.0073   0.7629
  20.600   2.2968   0.04007   0.03690  -0.0107   0.0073   0.7636
  20.700   2.2947   0.04125   0.03811  -0.0102   0.0072   0.7643
  20.800   2.2929   0.04243   0.03932  -0.0098   0.0072   0.7647
  20.900   2.2904   0.04372   0.04063  -0.0094   0.0072   0.7651
  21.000   2.2881   0.04502   0.04196  -0.0091   0.0072   0.7654
  21.100   2.2872   0.04621   0.04318  -0.0088   0.0072   0.7657
  21.200   2.2839   0.04767   0.04467  -0.0087   0.0072   0.7664
  21.300   2.2801   0.04919   0.04622  -0.0086   0.0071   0.7679
  21.400   2.2765   0.05070   0.04776  -0.0086   0.0071   0.7695
  21.500   2.2702   0.05256   0.04966  -0.0087   0.0071   0.7710
  21.600   2.2656   0.05428   0.05141  -0.0089   0.0071   0.7723
  21.700   2.2608   0.05607   0.05323  -0.0092   0.0071   0.7736
  21.800   2.2547   0.05805   0.05525  -0.0096   0.0071   0.7748
  21.900   2.2477   0.06016   0.05739  -0.0101   0.0070   0.7758
  22.000   2.2412   0.06229   0.05956  -0.0107   0.0070   0.7768
  22.100   2.2322   0.06474   0.06205  -0.0116   0.0070   0.7776
  22.200   2.2221   0.06735   0.06470  -0.0126   0.0070   0.7784
  22.300   2.2136   0.06982   0.06720  -0.0136   0.0070   0.7791
  22.400   2.2005   0.07293   0.07035  -0.0150   0.0069   0.7797
  22.500   2.1854   0.07640   0.07387  -0.0167   0.0069   0.7801
  22.600   2.1690   0.08011   0.07762  -0.0187   0.0069   0.7804
  22.700   2.1546   0.08358   0.08114  -0.0206   0.0069   0.7807
  22.800   2.1383   0.08737   0.08498  -0.0227   0.0070   0.7811
  22.900   2.1126   0.09247   0.09013  -0.0258   0.0069   0.7811
  23.000   2.0857   0.09783   0.09555  -0.0292   0.0069   0.7811
  23.100   2.0587   0.10327   0.10105  -0.0326   0.0070   0.7811
  23.200   2.0287   0.10925   0.10709  -0.0365   0.0071   0.7810
  23.300   1.9813   0.11777   0.11569  -0.0424   0.0071   0.7805
  23.400   1.9084   0.13055   0.12859  -0.0518   0.0071   0.7790
  23.500   1.7124   0.16498   0.16332  -0.0801   0.0074   0.7710
  23.700   1.4331   0.22784   0.22662  -0.1370   0.0076   0.7630
  23.900   1.4086   0.23819   0.23702  -0.1462   0.0075   0.7633
  24.000   1.3892   0.24565   0.24452  -0.1527   0.0075   0.7632
  24.100   1.3895   0.24755   0.24643  -0.1543   0.0075   0.7638
  24.200   1.3888   0.24973   0.24861  -0.1562   0.0074   0.7642
  24.300   1.3886   0.25176   0.25065  -0.1580   0.0074   0.7646
  24.400   1.3728   0.25851   0.25744  -0.1639   0.0073   0.7646
  24.500   1.3738   0.26017   0.25911  -0.1654   0.0072   0.7650
  24.600   1.3740   0.26210   0.26103  -0.1671   0.0071   0.7653
  24.700   1.3749   0.26380   0.26274  -0.1686   0.0071   0.7655
  24.800   1.3748   0.26582   0.26477  -0.1704   0.0070   0.7658
  24.900   1.3603   0.27269   0.27166  -0.1762   0.0067   0.7658
  25.000   1.3625   0.27403   0.27301  -0.1774   0.0067   0.7669
  25.100   1.3647   0.27538   0.27436  -0.1786   0.0067   0.7685
  25.200   1.3665   0.27683   0.27583  -0.1799   0.0067   0.7701
  25.300   1.3676   0.27857   0.27757  -0.1815   0.0066   0.7715
  25.400   1.3563   0.28483   0.28386  -0.1867   0.0064   0.7717
  25.500   1.3582   0.28629   0.28532  -0.1880   0.0063   0.7732
  25.600   1.3604   0.28766   0.28671  -0.1893   0.0063   0.7745
  25.700   1.3620   0.28924   0.28830  -0.1907   0.0062   0.7757
  25.800   1.3643   0.29058   0.28963  -0.1919   0.0062   0.7768
  25.900   1.3659   0.29212   0.29119  -0.1933   0.0061   0.7780
  26.000   1.3677   0.29364   0.29271  -0.1947   0.0061   0.7788
  26.100   1.3695   0.29514   0.29422  -0.1961   0.0061   0.7798
  26.200   1.3624   0.30020   0.29930  -0.2002   0.0061   0.7799
  26.300   1.3649   0.30146   0.30057  -0.2014   0.0061   0.7807
  26.400   1.3673   0.30268   0.30179  -0.2026   0.0061   0.7813
  26.500   1.3696   0.30399   0.30311  -0.2038   0.0061   0.7818
  26.600   1.3723   0.30510   0.30422  -0.2049   0.0061   0.7823
  26.700   1.3748   0.30630   0.30543  -0.2060   0.0061   0.7837
  26.800   1.3773   0.30747   0.30660  -0.2072   0.0060   0.7862
  26.900   1.3796   0.30878   0.30792  -0.2084   0.0060   0.7881
  27.000   1.3818   0.31008   0.30923  -0.2097   0.0060   0.7899
  27.100   1.3836   0.31158   0.31073  -0.2111   0.0060   0.7920
  27.200   1.3759   0.31731   0.31650  -0.2157   0.0059   0.7920
  27.300   1.3786   0.31841   0.31760  -0.2168   0.0059   0.7946
  27.400   1.3810   0.31959   0.31879  -0.2179   0.0059   0.7955
  27.500   1.3835   0.32080   0.32000  -0.2191   0.0058   0.7970
  27.600   1.3860   0.32195   0.32116  -0.2203   0.0058   0.7989
  27.700   1.3884   0.32317   0.32239  -0.2215   0.0058   0.8031
  27.800   1.3908   0.32440   0.32364  -0.2228   0.0058   0.8083
  27.900   1.3931   0.32561   0.32485  -0.2240   0.0057   0.8117
  28.000   1.3951   0.32700   0.32625  -0.2253   0.0057   0.8130
  28.100   1.3867   0.33361   0.33287  -0.2303   0.0053   0.8130
  28.200   1.3888   0.33495   0.33420  -0.2316   0.0052   0.8136
  28.300   1.3909   0.33625   0.33551  -0.2329   0.0051   0.8145
  28.400   1.3930   0.33757   0.33683  -0.2342   0.0050   0.8151
  28.500   1.3945   0.33921   0.33847  -0.2357   0.0049   0.8153
  28.600   1.3868   0.34639   0.34568  -0.2408   0.0044   0.8156
  28.700   1.3892   0.34752   0.34682  -0.2420   0.0044   0.8184
  28.800   1.3917   0.34865   0.34796  -0.2432   0.0044   0.8195
  28.900   1.3942   0.34974   0.34906  -0.2444   0.0044   0.8230
  29.000   1.3968   0.35071   0.35002  -0.2454   0.0044   0.8239
  29.100   1.3993   0.35184   0.35116  -0.2466   0.0044   0.8264
  29.200   1.4015   0.35305   0.35238  -0.2479   0.0044   0.8280
  29.300   1.4042   0.35400   0.35333  -0.2490   0.0044   0.8298
  29.500   1.4090   0.35620   0.35555  -0.2513   0.0043   0.8365
  29.600   1.4019   0.36399   0.36336  -0.2565   0.0038   0.8353
  29.700   1.4043   0.36507   0.36444  -0.2577   0.0038   0.8406
  29.800   1.4068   0.36608   0.36547  -0.2589   0.0037   0.8438
  29.900   1.4092   0.36716   0.36654  -0.2600   0.0037   0.8458
  30.000   1.4118   0.36807   0.36745  -0.2611   0.0036   0.8469
