  
       XFOIL         Version 6.99
  
 Calculated polar for: NASA SC(2)-0610 AIRFOIL                         
  
 1 1 Reynolds number fixed          Mach number fixed         
  
 xtrf =   1.000 (top)        1.000 (bottom)  
 Mach =   0.200     Re =    22.300 e 6     Ncrit =   9.000
  
   alpha    CL        CD       CDp       CM     Top_Xtr  Bot_Xtr
  ------ -------- --------- --------- -------- -------- --------
  -5.000  -0.1679   0.00545   0.00144  -0.0998   0.6091   0.0300
  -4.800  -0.1431   0.00543   0.00140  -0.1003   0.5877   0.0334
  -4.700  -0.1308   0.00544   0.00138  -0.1005   0.5765   0.0343
  -4.600  -0.1185   0.00543   0.00136  -0.1006   0.5701   0.0346
  -4.500  -0.1063   0.00544   0.00135  -0.1008   0.5572   0.0362
  -4.400  -0.0939   0.00545   0.00134  -0.1010   0.5458   0.0382
  -4.300  -0.0816   0.00545   0.00132  -0.1012   0.5328   0.0400
  -4.100  -0.0571   0.00547   0.00129  -0.1016   0.5072   0.0418
  -4.000  -0.0449   0.00549   0.00128  -0.1018   0.4963   0.0434
  -3.900  -0.0324   0.00547   0.00126  -0.1020   0.4913   0.0466
  -3.800  -0.0200   0.00546   0.00125  -0.1022   0.4835   0.0493
  -3.700  -0.0077   0.00546   0.00124  -0.1024   0.4719   0.0503
  -3.600   0.0043   0.00552   0.00124  -0.1026   0.4486   0.0508
  -3.400   0.0280   0.00571   0.00124  -0.1028   0.3659   0.0565
  -3.300   0.0401   0.00574   0.00123  -0.1030   0.3432   0.0587
  -3.200   0.0522   0.00580   0.00123  -0.1032   0.3162   0.0612
  -3.100   0.0646   0.00578   0.00122  -0.1034   0.3121   0.0669
  -3.000   0.0771   0.00578   0.00121  -0.1037   0.3013   0.0722
  -2.900   0.0894   0.00577   0.00120  -0.1038   0.2969   0.0749
  -2.800   0.1017   0.00579   0.00119  -0.1040   0.2818   0.0811
  -2.600   0.1263   0.00581   0.00119  -0.1044   0.2589   0.0927
  -2.500   0.1387   0.00581   0.00118  -0.1047   0.2464   0.0989
  -2.400   0.1507   0.00585   0.00118  -0.1048   0.2298   0.0999
  -2.300   0.1629   0.00587   0.00118  -0.1049   0.2189   0.1019
  -2.200   0.1750   0.00591   0.00119  -0.1051   0.2022   0.1076
  -2.100   0.1872   0.00593   0.00119  -0.1053   0.1881   0.1114
  -2.000   0.1994   0.00596   0.00119  -0.1054   0.1769   0.1144
  -1.900   0.2119   0.00594   0.00119  -0.1057   0.1699   0.1274
  -1.800   0.2240   0.00599   0.00120  -0.1058   0.1502   0.1329
  -1.600   0.2486   0.00599   0.00120  -0.1062   0.1382   0.1457
  -1.400   0.2738   0.00597   0.00120  -0.1068   0.1226   0.1751
  -1.300   0.2863   0.00596   0.00121  -0.1070   0.1177   0.1897
  -1.200   0.2985   0.00597   0.00121  -0.1072   0.1126   0.1944
  -1.100   0.3109   0.00595   0.00121  -0.1074   0.1117   0.2026
  -1.000   0.3232   0.00596   0.00123  -0.1075   0.1078   0.2100
  -0.900   0.3357   0.00597   0.00123  -0.1078   0.0970   0.2239
  -0.800   0.3481   0.00596   0.00124  -0.1080   0.0925   0.2371
  -0.700   0.3606   0.00596   0.00125  -0.1082   0.0849   0.2522
  -0.600   0.3732   0.00594   0.00125  -0.1085   0.0821   0.2676
  -0.500   0.3853   0.00597   0.00127  -0.1086   0.0767   0.2749
  -0.300   0.4101   0.00597   0.00129  -0.1090   0.0682   0.2980
  -0.200   0.4224   0.00599   0.00131  -0.1092   0.0622   0.3097
  -0.100   0.4352   0.00596   0.00132  -0.1095   0.0579   0.3334
   0.000   0.4481   0.00592   0.00133  -0.1099   0.0559   0.3605
   0.100   0.4608   0.00590   0.00135  -0.1102   0.0524   0.3845
   0.200   0.4736   0.00587   0.00135  -0.1105   0.0486   0.4091
   0.300   0.4860   0.00586   0.00137  -0.1107   0.0481   0.4217
   0.400   0.4983   0.00586   0.00138  -0.1109   0.0475   0.4324
   0.500   0.5107   0.00587   0.00140  -0.1111   0.0455   0.4440
   0.600   0.5231   0.00587   0.00142  -0.1113   0.0425   0.4615
   0.700   0.5355   0.00587   0.00143  -0.1115   0.0401   0.4747
   0.800   0.5479   0.00586   0.00145  -0.1117   0.0395   0.4885
   0.900   0.5601   0.00587   0.00147  -0.1118   0.0385   0.4974
   1.000   0.5723   0.00589   0.00149  -0.1119   0.0370   0.5053
   1.100   0.5845   0.00591   0.00152  -0.1120   0.0351   0.5144
   1.200   0.5965   0.00593   0.00154  -0.1121   0.0334   0.5194
   1.300   0.6087   0.00594   0.00156  -0.1123   0.0328   0.5277
   1.400   0.6208   0.00596   0.00158  -0.1123   0.0324   0.5323
   1.500   0.6328   0.00598   0.00161  -0.1124   0.0316   0.5373
   1.600   0.6451   0.00600   0.00163  -0.1126   0.0302   0.5500
   1.700   0.6574   0.00601   0.00166  -0.1127   0.0287   0.5642
   1.800   0.6695   0.00602   0.00169  -0.1128   0.0272   0.5742
   1.900   0.6816   0.00605   0.00172  -0.1129   0.0268   0.5790
   2.000   0.6935   0.00608   0.00174  -0.1129   0.0264   0.5807
   2.100   0.7053   0.00612   0.00178  -0.1129   0.0255   0.5827
   2.200   0.7173   0.00616   0.00181  -0.1130   0.0242   0.5870
   2.300   0.7292   0.00620   0.00185  -0.1130   0.0224   0.5901
   2.400   0.7411   0.00623   0.00188  -0.1131   0.0220   0.5926
   2.500   0.7530   0.00626   0.00191  -0.1131   0.0215   0.5948
   2.600   0.7649   0.00631   0.00195  -0.1131   0.0206   0.5963
   2.700   0.7767   0.00636   0.00199  -0.1131   0.0190   0.6006
   2.800   0.7886   0.00639   0.00202  -0.1131   0.0179   0.6045
   2.900   0.8005   0.00643   0.00206  -0.1131   0.0175   0.6069
   3.000   0.8123   0.00649   0.00211  -0.1131   0.0164   0.6084
   3.100   0.8241   0.00655   0.00215  -0.1131   0.0148   0.6094
   3.200   0.8359   0.00659   0.00219  -0.1131   0.0143   0.6101
   3.300   0.8477   0.00663   0.00223  -0.1131   0.0140   0.6107
   3.400   0.8595   0.00668   0.00227  -0.1131   0.0136   0.6112
   3.500   0.8712   0.00674   0.00232  -0.1131   0.0131   0.6123
   3.600   0.8831   0.00679   0.00236  -0.1130   0.0126   0.6151
   3.700   0.8949   0.00684   0.00241  -0.1130   0.0118   0.6178
   3.800   0.9067   0.00688   0.00245  -0.1130   0.0114   0.6204
   3.900   0.9186   0.00692   0.00249  -0.1130   0.0113   0.6221
   4.000   0.9304   0.00696   0.00253  -0.1130   0.0113   0.6235
   4.100   0.9422   0.00701   0.00258  -0.1129   0.0112   0.6243
   4.200   0.9540   0.00706   0.00262  -0.1129   0.0112   0.6250
   4.300   0.9657   0.00711   0.00266  -0.1129   0.0110   0.6253
   4.400   0.9775   0.00716   0.00271  -0.1128   0.0108   0.6256
   4.500   0.9892   0.00722   0.00276  -0.1128   0.0106   0.6259
   4.600   1.0009   0.00728   0.00282  -0.1127   0.0103   0.6261
   4.700   1.0126   0.00734   0.00287  -0.1126   0.0101   0.6264
   4.800   1.0243   0.00740   0.00293  -0.1126   0.0098   0.6266
   4.900   1.0360   0.00746   0.00298  -0.1125   0.0095   0.6267
   5.000   1.0476   0.00752   0.00304  -0.1124   0.0092   0.6269
   5.100   1.0593   0.00758   0.00310  -0.1123   0.0090   0.6270
   5.200   1.0710   0.00764   0.00315  -0.1123   0.0089   0.6278
   5.300   1.0828   0.00770   0.00321  -0.1122   0.0088   0.6291
   5.400   1.0945   0.00776   0.00327  -0.1121   0.0088   0.6305
