  
       XFOIL         Version 6.99
  
 Calculated polar for: NASA_sc_20410                                   
  
 1 1 Reynolds number fixed          Mach number fixed         
  
 xtrf =   1.000 (top)        1.000 (bottom)  
 Mach =   0.670     Re =    29.611 e 6     Ncrit =   9.000
  
   alpha    CL        CD       CDp       CM     Top_Xtr  Bot_Xtr
  ------ -------- --------- --------- -------- -------- --------
   0.000   0.3188   0.00602   0.00159  -0.0899   0.0559   0.2073
   0.100   0.3362   0.00603   0.00161  -0.0900   0.0553   0.2114
   0.300   0.3722   0.00603   0.00164  -0.0905   0.0499   0.2380
   0.400   0.3905   0.00600   0.00166  -0.0908   0.0465   0.2581
   0.500   0.4088   0.00598   0.00167  -0.0911   0.0457   0.2765
   0.600   0.4270   0.00598   0.00169  -0.0914   0.0431   0.2942
   0.900   0.4811   0.00600   0.00177  -0.0919   0.0341   0.3381
   1.000   0.5000   0.00597   0.00179  -0.0923   0.0325   0.3640
   1.100   0.5184   0.00596   0.00181  -0.0924   0.0316   0.3795
   1.200   0.5368   0.00595   0.00184  -0.0926   0.0314   0.3970
   1.300   0.5552   0.00595   0.00187  -0.0927   0.0312   0.4104
   1.400   0.5737   0.00594   0.00190  -0.0928   0.0307   0.4271
   1.500   0.5934   0.00589   0.00192  -0.0932   0.0298   0.4660
   1.600   0.6116   0.00591   0.00196  -0.0932   0.0287   0.4764
   1.700   0.6316   0.00586   0.00199  -0.0935   0.0272   0.5158
   1.800   0.6511   0.00583   0.00202  -0.0938   0.0260   0.5466
   1.900   0.6701   0.00582   0.00206  -0.0938   0.0256   0.5670
   2.000   0.6887   0.00584   0.00211  -0.0937   0.0250   0.5795
   2.100   0.7066   0.00591   0.00218  -0.0934   0.0214   0.5813
   2.200   0.7245   0.00601   0.00227  -0.0930   0.0165   0.5822
   2.300   0.7426   0.00608   0.00236  -0.0926   0.0137   0.5848
   2.400   0.7611   0.00614   0.00243  -0.0923   0.0129   0.5883
   2.500   0.7798   0.00619   0.00250  -0.0919   0.0124   0.5912
   2.600   0.7985   0.00624   0.00257  -0.0914   0.0118   0.5932
   2.700   0.8174   0.00630   0.00264  -0.0910   0.0115   0.5946
   2.800   0.8364   0.00635   0.00271  -0.0904   0.0114   0.5955
   2.900   0.8555   0.00641   0.00278  -0.0898   0.0114   0.5961
   3.000   0.8749   0.00647   0.00286  -0.0892   0.0116   0.5965
