  
       XFOIL         Version 6.99
  
 Calculated polar for: NASA_sc_20412                                   
  
 1 1 Reynolds number fixed          Mach number fixed         
  
 xtrf =   1.000 (top)        1.000 (bottom)  
 Mach =   0.670     Re =    29.611 e 6     Ncrit =   9.000
  
   alpha    CL        CD       CDp       CM     Top_Xtr  Bot_Xtr
  ------ -------- --------- --------- -------- -------- --------
  -3.000  -0.1923   0.00633   0.00228  -0.0910   0.3658   0.0431
  -2.900  -0.1733   0.00631   0.00224  -0.0913   0.3555   0.0446
  -2.800  -0.1549   0.00635   0.00221  -0.0915   0.3272   0.0455
  -2.700  -0.1361   0.00634   0.00218  -0.0918   0.3180   0.0484
  -2.600  -0.1175   0.00636   0.00216  -0.0921   0.2933   0.0511
  -2.500  -0.0992   0.00639   0.00213  -0.0923   0.2724   0.0522
  -2.400  -0.0807   0.00638   0.00211  -0.0925   0.2659   0.0528
  -2.300  -0.0621   0.00637   0.00208  -0.0928   0.2594   0.0542
  -2.100  -0.0253   0.00638   0.00205  -0.0934   0.2315   0.0592
  -2.000  -0.0071   0.00640   0.00203  -0.0936   0.2160   0.0608
  -1.900   0.0111   0.00641   0.00202  -0.0938   0.2041   0.0614
  -1.800   0.0292   0.00643   0.00201  -0.0941   0.1903   0.0643
  -1.700   0.0472   0.00648   0.00200  -0.0943   0.1669   0.0677
  -1.600   0.0655   0.00648   0.00199  -0.0946   0.1563   0.0702
  -1.500   0.0845   0.00646   0.00197  -0.0951   0.1441   0.0807
  -1.300   0.1207   0.00647   0.00196  -0.0956   0.1319   0.0869
  -1.200   0.1392   0.00645   0.00194  -0.0960   0.1265   0.0915
  -1.100   0.1573   0.00646   0.00194  -0.0962   0.1206   0.0940
  -1.000   0.1752   0.00647   0.00194  -0.0964   0.1132   0.0969
  -0.900   0.1936   0.00647   0.00194  -0.0967   0.1108   0.1025
  -0.800   0.2119   0.00647   0.00193  -0.0970   0.1062   0.1074
  -0.600   0.2500   0.00639   0.00191  -0.0980   0.0992   0.1369
  -0.500   0.2689   0.00636   0.00190  -0.0985   0.0982   0.1503
  -0.400   0.2868   0.00639   0.00192  -0.0987   0.0894   0.1563
  -0.300   0.3053   0.00639   0.00192  -0.0990   0.0832   0.1666
  -0.100   0.3424   0.00638   0.00194  -0.0997   0.0740   0.1905
  -0.000   0.3608   0.00639   0.00196  -0.1000   0.0692   0.2008
   0.100   0.3789   0.00640   0.00198  -0.1001   0.0651   0.2077
   0.200   0.3975   0.00639   0.00198  -0.1004   0.0639   0.2176
   0.300   0.4153   0.00643   0.00201  -0.1005   0.0600   0.2201
   0.400   0.4340   0.00642   0.00203  -0.1008   0.0562   0.2335
   0.500   0.4540   0.00637   0.00203  -0.1014   0.0547   0.2643
   0.600   0.4733   0.00634   0.00205  -0.1019   0.0522   0.2890
   0.700   0.4922   0.00633   0.00207  -0.1022   0.0493   0.3060
   0.800   0.5120   0.00629   0.00207  -0.1027   0.0484   0.3307
   0.900   0.5303   0.00630   0.00210  -0.1027   0.0477   0.3387
   1.000   0.5504   0.00625   0.00212  -0.1033   0.0462   0.3716
   1.100   0.5701   0.00622   0.00214  -0.1037   0.0444   0.3976
   1.200   0.5902   0.00618   0.00215  -0.1042   0.0421   0.4287
   1.300   0.6093   0.00617   0.00218  -0.1044   0.0420   0.4453
   1.500   0.6476   0.00616   0.00223  -0.1046   0.0415   0.4747
   1.600   0.6670   0.00615   0.00226  -0.1048   0.0410   0.4948
   1.700   0.6862   0.00615   0.00229  -0.1049   0.0404   0.5101
   1.800   0.7045   0.00619   0.00235  -0.1047   0.0394   0.5127
   1.900   0.7234   0.00622   0.00239  -0.1046   0.0383   0.5225
   2.100   0.7615   0.00626   0.00248  -0.1044   0.0362   0.5431
   2.200   0.7802   0.00630   0.00253  -0.1041   0.0360   0.5459
   2.300   0.7992   0.00634   0.00258  -0.1039   0.0356   0.5514
   2.400   0.8183   0.00637   0.00263  -0.1036   0.0349   0.5568
   2.600   0.8562   0.00648   0.00276  -0.1029   0.0316   0.5674
   2.700   0.8755   0.00652   0.00282  -0.1026   0.0306   0.5729
   2.800   0.8946   0.00658   0.00289  -0.1021   0.0290   0.5753
   2.900   0.9136   0.00665   0.00298  -0.1016   0.0267   0.5766
   3.000   0.9330   0.00671   0.00305  -0.1010   0.0257   0.5789
