  
       XFOIL         Version 6.99
  
 Calculated polar for: NACA 23012                                      
  
 1 1 Reynolds number fixed          Mach number fixed         
  
 xtrf =   1.000 (top)        1.000 (bottom)  
 Mach =   0.670     Re =    29.611 e 6     Ncrit =   9.000
  
   alpha    CL        CD       CDp       CM     Top_Xtr  Bot_Xtr
  ------ -------- --------- --------- -------- -------- --------
  -3.000  -0.3158   0.00645   0.00206  -0.0213   0.2382   0.0126
  -2.900  -0.2977   0.00641   0.00198  -0.0207   0.2330   0.0128
  -2.800  -0.2797   0.00637   0.00192  -0.0201   0.2309   0.0130
  -2.700  -0.2619   0.00635   0.00188  -0.0196   0.2262   0.0131
  -2.500  -0.2264   0.00629   0.00178  -0.0187   0.2174   0.0139
  -2.400  -0.2087   0.00626   0.00174  -0.0183   0.2161   0.0145
  -2.300  -0.1912   0.00623   0.00170  -0.0179   0.2140   0.0150
  -2.200  -0.1736   0.00621   0.00167  -0.0176   0.2117   0.0154
  -2.100  -0.1562   0.00620   0.00164  -0.0172   0.2088   0.0157
  -2.000  -0.1387   0.00618   0.00161  -0.0169   0.2057   0.0160
  -1.900  -0.1213   0.00616   0.00158  -0.0166   0.2028   0.0163
  -1.800  -0.1039   0.00613   0.00155  -0.0164   0.2022   0.0174
  -1.700  -0.0866   0.00611   0.00152  -0.0161   0.2017   0.0181
  -1.600  -0.0693   0.00609   0.00150  -0.0159   0.2009   0.0187
  -1.500  -0.0521   0.00607   0.00148  -0.0156   0.1995   0.0192
  -1.400  -0.0349   0.00607   0.00146  -0.0154   0.1972   0.0194
  -1.300  -0.0179   0.00606   0.00145  -0.0152   0.1938   0.0202
  -1.200  -0.0009   0.00605   0.00143  -0.0150   0.1906   0.0215
  -1.100   0.0162   0.00604   0.00141  -0.0148   0.1882   0.0223
  -1.000   0.0334   0.00602   0.00140  -0.0147   0.1873   0.0229
  -0.900   0.0505   0.00601   0.00138  -0.0145   0.1870   0.0232
  -0.800   0.0676   0.00600   0.00137  -0.0144   0.1865   0.0249
  -0.700   0.0846   0.00598   0.00136  -0.0142   0.1859   0.0265
  -0.600   0.1016   0.00597   0.00135  -0.0141   0.1848   0.0271
  -0.500   0.1186   0.00597   0.00135  -0.0140   0.1832   0.0276
  -0.400   0.1354   0.00597   0.00135  -0.0139   0.1811   0.0296
  -0.300   0.1523   0.00597   0.00134  -0.0137   0.1792   0.0312
  -0.200   0.1692   0.00597   0.00134  -0.0136   0.1767   0.0322
  -0.100   0.1862   0.00597   0.00134  -0.0135   0.1742   0.0335
  -0.000   0.2031   0.00596   0.00134  -0.0134   0.1729   0.0364
   0.100   0.2202   0.00595   0.00133  -0.0133   0.1726   0.0378
   0.200   0.2372   0.00595   0.00134  -0.0132   0.1722   0.0391
   0.300   0.2542   0.00594   0.00134  -0.0131   0.1716   0.0423
   0.400   0.2711   0.00594   0.00134  -0.0130   0.1704   0.0445
   0.500   0.2880   0.00595   0.00135  -0.0129   0.1689   0.0458
   0.600   0.3048   0.00595   0.00136  -0.0128   0.1673   0.0506
   0.700   0.3217   0.00596   0.00137  -0.0127   0.1652   0.0531
   0.800   0.3386   0.00596   0.00138  -0.0126   0.1631   0.0570
   0.900   0.3556   0.00596   0.00139  -0.0125   0.1608   0.0616
   1.000   0.3726   0.00597   0.00140  -0.0124   0.1589   0.0652
   1.100   0.3896   0.00595   0.00141  -0.0123   0.1587   0.0727
   1.200   0.4067   0.00595   0.00142  -0.0122   0.1584   0.0817
   1.300   0.4238   0.00594   0.00143  -0.0121   0.1581   0.0885
   1.400   0.4407   0.00592   0.00145  -0.0119   0.1576   0.1044
   1.500   0.4573   0.00587   0.00146  -0.0117   0.1568   0.1418
   1.600   0.4709   0.00557   0.00144  -0.0112   0.1552   0.2817
   1.700   0.4873   0.00553   0.00145  -0.0110   0.1534   0.3076
   1.800   0.5040   0.00552   0.00148  -0.0108   0.1512   0.3249
   1.900   0.5208   0.00551   0.00150  -0.0106   0.1490   0.3430
   2.000   0.5377   0.00549   0.00152  -0.0104   0.1469   0.3617
   2.100   0.5548   0.00547   0.00154  -0.0102   0.1454   0.3800
   2.200   0.5720   0.00546   0.00156  -0.0101   0.1451   0.3936
   2.300   0.5889   0.00541   0.00157  -0.0099   0.1449   0.4210
   2.400   0.6063   0.00541   0.00160  -0.0097   0.1446   0.4323
   2.500   0.6238   0.00541   0.00163  -0.0095   0.1441   0.4419
   2.600   0.6411   0.00540   0.00165  -0.0093   0.1435   0.4609
   2.700   0.6584   0.00539   0.00168  -0.0091   0.1425   0.4782
   2.800   0.6757   0.00540   0.00171  -0.0088   0.1410   0.4902
   2.900   0.6928   0.00541   0.00176  -0.0085   0.1391   0.5087
   3.000   0.7098   0.00539   0.00180  -0.0082   0.1369   0.5338
