  
       XFOIL         Version 6.99
  
 Calculated polar for: NASA SC(2)-0710 AIRFOIL                         
  
 1 1 Reynolds number fixed          Mach number fixed         
  
 xtrf =   1.000 (top)        1.000 (bottom)  
 Mach =   0.200     Re =    22.300 e 6     Ncrit =   9.000
  
   alpha    CL        CD       CDp       CM     Top_Xtr  Bot_Xtr
  ------ -------- --------- --------- -------- -------- --------
  -5.000  -0.0607   0.00535   0.00137  -0.1197   0.6054   0.0300
  -4.800  -0.0363   0.00540   0.00135  -0.1200   0.5720   0.0328
  -4.700  -0.0240   0.00541   0.00134  -0.1202   0.5600   0.0336
  -4.600  -0.0117   0.00542   0.00133  -0.1204   0.5464   0.0348
  -4.500   0.0004   0.00545   0.00132  -0.1206   0.5288   0.0356
  -4.400   0.0127   0.00546   0.00130  -0.1208   0.5154   0.0393
  -4.300   0.0252   0.00544   0.00128  -0.1211   0.5075   0.0416
  -4.200   0.0375   0.00545   0.00128  -0.1213   0.4986   0.0432
  -4.100   0.0497   0.00547   0.00127  -0.1215   0.4829   0.0470
  -4.000   0.0619   0.00552   0.00126  -0.1217   0.4548   0.0504
  -3.900   0.0737   0.00560   0.00126  -0.1218   0.4196   0.0518
  -3.800   0.0854   0.00570   0.00127  -0.1219   0.3824   0.0522
  -3.700   0.0974   0.00574   0.00126  -0.1220   0.3588   0.0560
  -3.600   0.1098   0.00575   0.00125  -0.1223   0.3453   0.0595
  -3.400   0.1343   0.00579   0.00124  -0.1227   0.3146   0.0691
  -3.300   0.1466   0.00581   0.00124  -0.1229   0.2993   0.0735
  -3.200   0.1587   0.00585   0.00124  -0.1230   0.2807   0.0752
  -3.100   0.1705   0.00593   0.00124  -0.1231   0.2485   0.0792
  -3.000   0.1829   0.00594   0.00125  -0.1234   0.2345   0.0851
  -2.900   0.1951   0.00596   0.00125  -0.1236   0.2222   0.0898
  -2.700   0.2196   0.00601   0.00124  -0.1239   0.1919   0.1020
  -2.600   0.2318   0.00602   0.00124  -0.1241   0.1858   0.1026
  -2.500   0.2438   0.00604   0.00125  -0.1242   0.1785   0.1037
  -2.400   0.2560   0.00605   0.00125  -0.1244   0.1713   0.1084
  -2.300   0.2683   0.00606   0.00125  -0.1245   0.1651   0.1123
  -2.200   0.2805   0.00608   0.00125  -0.1247   0.1538   0.1160
  -2.100   0.2931   0.00608   0.00126  -0.1250   0.1460   0.1301
  -2.000   0.3057   0.00606   0.00126  -0.1253   0.1404   0.1439
  -1.900   0.3179   0.00608   0.00127  -0.1254   0.1296   0.1504
  -1.800   0.3304   0.00608   0.00127  -0.1257   0.1204   0.1629
  -1.600   0.3550   0.00612   0.00129  -0.1261   0.1023   0.1823
  -1.500   0.3674   0.00611   0.00129  -0.1263   0.0962   0.1921
  -1.400   0.3798   0.00611   0.00130  -0.1265   0.0944   0.2018
  -1.300   0.3922   0.00612   0.00132  -0.1267   0.0874   0.2130
  -1.200   0.4047   0.00611   0.00132  -0.1269   0.0822   0.2259
  -1.100   0.4170   0.00612   0.00133  -0.1271   0.0776   0.2359
  -1.000   0.4292   0.00614   0.00135  -0.1273   0.0701   0.2420
  -0.900   0.4424   0.00609   0.00135  -0.1277   0.0678   0.2731
  -0.800   0.4547   0.00610   0.00136  -0.1279   0.0642   0.2843
  -0.700   0.4669   0.00612   0.00138  -0.1280   0.0600   0.2909
  -0.600   0.4793   0.00611   0.00139  -0.1282   0.0575   0.3028
  -0.500   0.4913   0.00614   0.00141  -0.1283   0.0552   0.3053
  -0.400   0.5032   0.00618   0.00143  -0.1284   0.0499   0.3083
  -0.300   0.5156   0.00618   0.00144  -0.1286   0.0476   0.3190
  -0.200   0.5280   0.00618   0.00146  -0.1288   0.0456   0.3330
   0.000   0.5542   0.00611   0.00149  -0.1296   0.0381   0.3988
   0.100   0.5669   0.00609   0.00151  -0.1299   0.0368   0.4230
   0.200   0.5798   0.00607   0.00153  -0.1302   0.0349   0.4478
   0.400   0.6047   0.00605   0.00157  -0.1307   0.0324   0.4801
   0.500   0.6171   0.00605   0.00158  -0.1308   0.0320   0.4926
   0.600   0.6293   0.00606   0.00161  -0.1310   0.0315   0.5031
   0.700   0.6414   0.00608   0.00163  -0.1311   0.0309   0.5097
   0.800   0.6537   0.00609   0.00165  -0.1312   0.0299   0.5227
   0.900   0.6661   0.00609   0.00168  -0.1314   0.0289   0.5364
   1.000   0.6780   0.00612   0.00170  -0.1315   0.0280   0.5415
   1.100   0.6901   0.00614   0.00173  -0.1315   0.0270   0.5477
   1.200   0.7022   0.00615   0.00175  -0.1316   0.0267   0.5553
   1.300   0.7144   0.00616   0.00178  -0.1318   0.0266   0.5646
   1.400   0.7264   0.00618   0.00180  -0.1318   0.0265   0.5690
   1.500   0.7382   0.00621   0.00183  -0.1318   0.0264   0.5702
   1.600   0.7501   0.00625   0.00185  -0.1318   0.0261   0.5707
   1.700   0.7619   0.00628   0.00189  -0.1318   0.0256   0.5716
   1.800   0.7737   0.00633   0.00192  -0.1319   0.0245   0.5735
   1.900   0.7855   0.00637   0.00196  -0.1319   0.0233   0.5761
   2.000   0.7974   0.00641   0.00199  -0.1319   0.0219   0.5778
   2.100   0.8092   0.00644   0.00202  -0.1319   0.0217   0.5794
   2.200   0.8211   0.00648   0.00205  -0.1319   0.0214   0.5811
   2.300   0.8329   0.00652   0.00209  -0.1319   0.0206   0.5823
   2.400   0.8446   0.00658   0.00213  -0.1319   0.0188   0.5841
   2.500   0.8563   0.00663   0.00217  -0.1318   0.0175   0.5859
   2.600   0.8681   0.00668   0.00222  -0.1318   0.0168   0.5877
   2.700   0.8799   0.00673   0.00227  -0.1318   0.0154   0.5931
   2.800   0.8917   0.00678   0.00231  -0.1318   0.0141   0.5973
   2.900   0.9035   0.00682   0.00235  -0.1318   0.0138   0.5994
   3.000   0.9152   0.00687   0.00240  -0.1318   0.0133   0.6004
   3.100   0.9269   0.00693   0.00245  -0.1317   0.0128   0.6020
   3.200   0.9387   0.00698   0.00249  -0.1317   0.0122   0.6055
   3.300   0.9505   0.00703   0.00254  -0.1317   0.0117   0.6083
   3.400   0.9622   0.00707   0.00258  -0.1316   0.0112   0.6105
   3.500   0.9740   0.00712   0.00263  -0.1316   0.0111   0.6124
   3.600   0.9858   0.00716   0.00267  -0.1315   0.0111   0.6138
   3.700   0.9975   0.00721   0.00271  -0.1315   0.0110   0.6149
   3.800   1.0092   0.00726   0.00276  -0.1314   0.0109   0.6155
   3.900   1.0209   0.00730   0.00280  -0.1314   0.0108   0.6165
   4.000   1.0326   0.00736   0.00285  -0.1313   0.0106   0.6203
   4.100   1.0444   0.00741   0.00291  -0.1313   0.0103   0.6231
   4.200   1.0561   0.00746   0.00296  -0.1312   0.0102   0.6258
   4.300   1.0677   0.00753   0.00302  -0.1311   0.0098   0.6280
   4.400   1.0794   0.00758   0.00307  -0.1311   0.0096   0.6295
   4.500   1.0910   0.00765   0.00313  -0.1310   0.0092   0.6304
   4.600   1.1026   0.00771   0.00319  -0.1309   0.0090   0.6310
   4.700   1.1142   0.00777   0.00325  -0.1308   0.0089   0.6320
   4.800   1.1259   0.00783   0.00331  -0.1307   0.0087   0.6346
   4.900   1.1376   0.00789   0.00337  -0.1306   0.0086   0.6372
   5.000   1.1492   0.00795   0.00344  -0.1305   0.0085   0.6390
   5.100   1.1609   0.00801   0.00350  -0.1304   0.0085   0.6405
   5.200   1.1725   0.00806   0.00356  -0.1303   0.0085   0.6421
   5.300   1.1842   0.00812   0.00361  -0.1302   0.0085   0.6435
   5.400   1.1958   0.00818   0.00367  -0.1300   0.0085   0.6446
   5.500   1.2074   0.00824   0.00373  -0.1299   0.0085   0.6453
   5.600   1.2190   0.00830   0.00379  -0.1298   0.0085   0.6460
   5.700   1.2306   0.00836   0.00385  -0.1297   0.0085   0.6464
   5.800   1.2422   0.00842   0.00390  -0.1295   0.0085   0.6478
   5.900   1.2538   0.00848   0.00397  -0.1294   0.0085   0.6500
   6.000   1.2654   0.00854   0.00403  -0.1293   0.0085   0.6523
   6.100   1.2770   0.00860   0.00409  -0.1292   0.0085   0.6546
   6.200   1.2886   0.00866   0.00416  -0.1290   0.0085   0.6562
   6.300   1.3002   0.00873   0.00422  -0.1289   0.0085   0.6577
   6.400   1.3117   0.00879   0.00428  -0.1287   0.0085   0.6591
   6.500   1.3233   0.00886   0.00435  -0.1286   0.0084   0.6600
   6.600   1.3348   0.00893   0.00442  -0.1284   0.0084   0.6608
   6.700   1.3463   0.00899   0.00448  -0.1282   0.0084   0.6612
   6.800   1.3578   0.00906   0.00455  -0.1280   0.0084   0.6616
   6.900   1.3693   0.00913   0.00462  -0.1279   0.0084   0.6619
   7.000   1.3808   0.00920   0.00469  -0.1277   0.0084   0.6621
   7.100   1.3923   0.00928   0.00476  -0.1275   0.0084   0.6623
   7.200   1.4038   0.00935   0.00484  -0.1273   0.0083   0.6636
   7.300   1.4153   0.00942   0.00491  -0.1271   0.0083   0.6650
   7.400   1.4267   0.00950   0.00499  -0.1269   0.0083   0.6666
   7.500   1.4382   0.00957   0.00507  -0.1267   0.0083   0.6681
   7.600   1.4497   0.00965   0.00514  -0.1265   0.0082   0.6694
   7.700   1.4611   0.00973   0.00522  -0.1262   0.0082   0.6706
   7.800   1.4725   0.00980   0.00531  -0.1260   0.0081   0.6717
   7.900   1.4839   0.00989   0.00539  -0.1258   0.0081   0.6728
   8.000   1.4953   0.00997   0.00547  -0.1256   0.0080   0.6738
   8.100   1.5067   0.01006   0.00556  -0.1253   0.0079   0.6747
   8.200   1.5180   0.01015   0.00566  -0.1250   0.0078   0.6755
   8.300   1.5293   0.01024   0.00575  -0.1248   0.0077   0.6762
   8.400   1.5405   0.01034   0.00584  -0.1245   0.0077   0.6768
   8.500   1.5518   0.01044   0.00595  -0.1242   0.0076   0.6772
   8.600   1.5629   0.01055   0.00605  -0.1239   0.0074   0.6776
   8.700   1.5741   0.01065   0.00616  -0.1236   0.0073   0.6779
   8.800   1.5852   0.01077   0.00628  -0.1233   0.0072   0.6781
   8.900   1.5964   0.01088   0.00639  -0.1230   0.0070   0.6795
   9.000   1.6075   0.01099   0.00650  -0.1227   0.0069   0.6814
   9.100   1.6187   0.01110   0.00662  -0.1223   0.0068   0.6831
   9.200   1.6298   0.01122   0.00675  -0.1220   0.0067   0.6847
   9.300   1.6409   0.01133   0.00687  -0.1217   0.0066   0.6862
   9.400   1.6520   0.01145   0.00699  -0.1213   0.0066   0.6874
   9.500   1.6629   0.01158   0.00714  -0.1209   0.0065   0.6885
   9.600   1.6740   0.01169   0.00726  -0.1206   0.0065   0.6896
   9.700   1.6849   0.01183   0.00741  -0.1202   0.0064   0.6906
   9.800   1.6959   0.01195   0.00754  -0.1198   0.0064   0.6914
   9.900   1.7067   0.01210   0.00770  -0.1194   0.0063   0.6921
  10.000   1.7176   0.01223   0.00785  -0.1190   0.0063   0.6926
  10.100   1.7285   0.01236   0.00799  -0.1186   0.0063   0.6931
  10.200   1.7393   0.01250   0.00813  -0.1182   0.0063   0.6935
  10.300   1.7503   0.01261   0.00825  -0.1178   0.0063   0.6938
  10.400   1.7613   0.01273   0.00838  -0.1174   0.0063   0.6941
  10.500   1.7723   0.01284   0.00849  -0.1170   0.0063   0.6953
  10.600   1.7832   0.01297   0.00863  -0.1166   0.0063   0.6970
  10.700   1.7940   0.01309   0.00876  -0.1161   0.0063   0.6988
  10.800   1.8048   0.01323   0.00890  -0.1157   0.0063   0.7004
  10.900   1.8157   0.01335   0.00904  -0.1152   0.0063   0.7018
  11.000   1.8264   0.01349   0.00919  -0.1148   0.0063   0.7031
  11.100   1.8373   0.01361   0.00932  -0.1143   0.0063   0.7043
  11.200   1.8480   0.01375   0.00947  -0.1139   0.0063   0.7053
  11.300   1.8586   0.01389   0.00962  -0.1134   0.0063   0.7063
  11.400   1.8693   0.01403   0.00977  -0.1129   0.0063   0.7071
  11.500   1.8799   0.01417   0.00992  -0.1124   0.0063   0.7078
  11.600   1.8905   0.01432   0.01008  -0.1119   0.0063   0.7083
  11.700   1.9009   0.01448   0.01025  -0.1113   0.0062   0.7088
  11.800   1.9115   0.01461   0.01039  -0.1108   0.0062   0.7091
  11.900   1.9219   0.01477   0.01056  -0.1102   0.0062   0.7094
  12.000   1.9324   0.01492   0.01072  -0.1097   0.0062   0.7097
  12.100   1.9427   0.01507   0.01088  -0.1091   0.0062   0.7099
  12.200   1.9531   0.01523   0.01105  -0.1085   0.0062   0.7100
  12.300   1.9634   0.01539   0.01122  -0.1079   0.0062   0.7111
  12.400   1.9737   0.01554   0.01139  -0.1074   0.0062   0.7125
  12.500   1.9838   0.01571   0.01157  -0.1067   0.0062   0.7139
  12.600   1.9942   0.01585   0.01172  -0.1062   0.0062   0.7154
  12.700   2.0042   0.01604   0.01192  -0.1055   0.0062   0.7167
  12.800   2.0141   0.01623   0.01212  -0.1048   0.0062   0.7179
  12.900   2.0242   0.01638   0.01230  -0.1042   0.0062   0.7190
  13.000   2.0342   0.01656   0.01248  -0.1035   0.0062   0.7200
  13.100   2.0441   0.01673   0.01267  -0.1028   0.0062   0.7210
  13.200   2.0537   0.01693   0.01289  -0.1021   0.0062   0.7219
  13.300   2.0636   0.01710   0.01307  -0.1014   0.0061   0.7227
  13.400   2.0732   0.01729   0.01327  -0.1007   0.0061   0.7234
  13.500   2.0829   0.01747   0.01347  -0.0999   0.0061   0.7240
  13.600   2.0923   0.01767   0.01368  -0.0992   0.0061   0.7245
  13.700   2.1018   0.01786   0.01388  -0.0984   0.0061   0.7250
  13.800   2.1112   0.01806   0.01409  -0.0976   0.0061   0.7253
  13.900   2.1203   0.01827   0.01432  -0.0968   0.0061   0.7256
  14.000   2.1292   0.01849   0.01457  -0.0959   0.0061   0.7259
  14.100   2.1383   0.01870   0.01478  -0.0951   0.0060   0.7261
  14.200   2.1472   0.01891   0.01501  -0.0942   0.0060   0.7262
  14.300   2.1559   0.01914   0.01526  -0.0933   0.0060   0.7265
  14.400   2.1646   0.01936   0.01549  -0.0924   0.0060   0.7276
  14.500   2.1732   0.01958   0.01573  -0.0914   0.0059   0.7288
  14.600   2.1818   0.01979   0.01596  -0.0905   0.0059   0.7302
  14.700   2.1899   0.02005   0.01623  -0.0895   0.0059   0.7316
  14.800   2.1981   0.02028   0.01648  -0.0885   0.0058   0.7328
  14.900   2.2058   0.02053   0.01676  -0.0874   0.0058   0.7340
  15.000   2.2136   0.02078   0.01702  -0.0864   0.0058   0.7349
  15.100   2.2211   0.02103   0.01729  -0.0853   0.0058   0.7359
  15.200   2.2277   0.02130   0.01758  -0.0840   0.0057   0.7367
  15.300   2.2338   0.02157   0.01788  -0.0827   0.0057   0.7375
  15.400   2.2396   0.02183   0.01816  -0.0813   0.0057   0.7383
  15.500   2.2449   0.02211   0.01845  -0.0798   0.0056   0.7389
  15.600   2.2495   0.02240   0.01876  -0.0782   0.0056   0.7395
  15.700   2.2541   0.02268   0.01906  -0.0767   0.0056   0.7400
  15.800   2.2584   0.02299   0.01939  -0.0751   0.0056   0.7405
  15.900   2.2612   0.02330   0.01973  -0.0732   0.0056   0.7408
  16.000   2.2629   0.02361   0.02006  -0.0712   0.0055   0.7412
  16.100   2.2649   0.02396   0.02043  -0.0693   0.0055   0.7414
  16.200   2.2673   0.02432   0.02082  -0.0674   0.0055   0.7417
  16.300   2.2704   0.02469   0.02121  -0.0657   0.0054   0.7419
  16.400   2.2730   0.02509   0.02163  -0.0640   0.0054   0.7421
  16.500   2.2753   0.02550   0.02207  -0.0623   0.0054   0.7422
  16.600   2.2786   0.02590   0.02249  -0.0607   0.0054   0.7424
  16.700   2.2802   0.02638   0.02300  -0.0589   0.0053   0.7425
  16.800   2.2827   0.02683   0.02348  -0.0573   0.0053   0.7427
  16.900   2.2849   0.02731   0.02398  -0.0557   0.0053   0.7437
  17.000   2.2867   0.02780   0.02450  -0.0541   0.0053   0.7447
  17.100   2.2883   0.02834   0.02506  -0.0525   0.0052   0.7459
  17.200   2.2900   0.02889   0.02564  -0.0509   0.0052   0.7470
  17.300   2.2920   0.02941   0.02619  -0.0494   0.0052   0.7483
  17.400   2.2922   0.03006   0.02687  -0.0478   0.0051   0.7494
  17.500   2.2927   0.03069   0.02753  -0.0462   0.0051   0.7503
  17.600   2.2933   0.03135   0.02822  -0.0447   0.0051   0.7511
  17.700   2.2934   0.03205   0.02895  -0.0432   0.0051   0.7519
  17.800   2.2940   0.03273   0.02966  -0.0417   0.0050   0.7527
  17.900   2.2937   0.03349   0.03046  -0.0403   0.0050   0.7535
  18.000   2.2929   0.03429   0.03129  -0.0389   0.0050   0.7541
  18.100   2.2919   0.03511   0.03214  -0.0375   0.0050   0.7548
  18.200   2.2905   0.03599   0.03305  -0.0361   0.0049   0.7554
  18.300   2.2887   0.03692   0.03402  -0.0348   0.0049   0.7559
  18.400   2.2875   0.03784   0.03498  -0.0336   0.0049   0.7564
  18.500   2.2851   0.03887   0.03603  -0.0324   0.0049   0.7568
  18.600   2.2822   0.03997   0.03717  -0.0312   0.0048   0.7573
  18.700   2.2802   0.04100   0.03824  -0.0302   0.0049   0.7576
  18.800   2.2768   0.04216   0.03943  -0.0292   0.0048   0.7578
  18.900   2.2717   0.04352   0.04083  -0.0282   0.0048   0.7581
  19.000   2.2697   0.04465   0.04199  -0.0274   0.0048   0.7583
  19.200   2.2582   0.04770   0.04513  -0.0260   0.0048   0.7601
  19.300   2.2538   0.04921   0.04666  -0.0255   0.0047   0.7615
  19.400   2.2459   0.05111   0.04861  -0.0252   0.0047   0.7628
  19.500   2.2416   0.05270   0.05023  -0.0249   0.0047   0.7642
  19.600   2.2338   0.05470   0.05228  -0.0249   0.0047   0.7653
  19.700   2.2251   0.05689   0.05452  -0.0251   0.0047   0.7662
  19.800   2.2173   0.05909   0.05676  -0.0254   0.0047   0.7671
  19.900   2.2096   0.06138   0.05909  -0.0259   0.0047   0.7679
  20.000   2.1993   0.06405   0.06181  -0.0268   0.0047   0.7686
  20.100   2.1892   0.06681   0.06460  -0.0278   0.0047   0.7692
  20.200   2.1838   0.06903   0.06685  -0.0286   0.0047   0.7700
  20.300   2.1647   0.07319   0.07108  -0.0308   0.0047   0.7703
  20.400   2.1499   0.07687   0.07480  -0.0328   0.0046   0.7707
  20.500   2.1373   0.08027   0.07824  -0.0347   0.0047   0.7712
  20.600   2.1121   0.08567   0.08370  -0.0381   0.0046   0.7712
  20.700   2.1042   0.08853   0.08659  -0.0397   0.0047   0.7717
  20.800   2.0761   0.09457   0.09269  -0.0438   0.0047   0.7716
  20.900   2.0469   0.10092   0.09909  -0.0482   0.0047   0.7716
  21.000   2.0172   0.10730   0.10553  -0.0525   0.0047   0.7714
  21.100   1.9747   0.11578   0.11407  -0.0586   0.0047   0.7710
  21.200   1.9068   0.12866   0.12704  -0.0682   0.0048   0.7695
  21.400   1.3563   0.25508   0.25416  -0.1796   0.0054   0.7524
  21.500   1.3571   0.25698   0.25606  -0.1811   0.0053   0.7531
  21.600   1.3580   0.25886   0.25795  -0.1827   0.0052   0.7536
  21.700   1.3603   0.26026   0.25936  -0.1839   0.0052   0.7541
  21.800   1.3605   0.26239   0.26149  -0.1856   0.0051   0.7547
  21.900   1.3442   0.27113   0.27025  -0.1927   0.0047   0.7545
  22.000   1.3463   0.27261   0.27174  -0.1940   0.0047   0.7550
  22.100   1.3482   0.27421   0.27335  -0.1953   0.0046   0.7556
  22.200   1.3498   0.27598   0.27512  -0.1967   0.0046   0.7559
  22.300   1.3512   0.27779   0.27694  -0.1982   0.0045   0.7562
  22.400   1.3531   0.27943   0.27858  -0.1996   0.0045   0.7567
  22.500   1.3427   0.28664   0.28583  -0.2052   0.0044   0.7567
  22.600   1.3453   0.28799   0.28718  -0.2064   0.0044   0.7571
  22.700   1.3475   0.28950   0.28870  -0.2076   0.0044   0.7574
  22.800   1.3497   0.29100   0.29021  -0.2089   0.0044   0.7577
  22.900   1.3526   0.29214   0.29134  -0.2099   0.0044   0.7579
  23.000   1.3547   0.29368   0.29289  -0.2112   0.0044   0.7581
  23.100   1.3564   0.29548   0.29470  -0.2127   0.0044   0.7583
  23.200   1.3590   0.29674   0.29596  -0.2138   0.0044   0.7584
  23.300   1.3502   0.30418   0.30342  -0.2193   0.0043   0.7584
  23.400   1.3531   0.30530   0.30455  -0.2203   0.0043   0.7594
  23.500   1.3559   0.30653   0.30578  -0.2214   0.0043   0.7606
  23.600   1.3589   0.30763   0.30688  -0.2224   0.0042   0.7618
  23.700   1.3605   0.30953   0.30879  -0.2240   0.0043   0.7637
  23.800   1.3628   0.31098   0.31024  -0.2253   0.0042   0.7644
  23.900   1.3542   0.31963   0.31890  -0.2314   0.0036   0.7639
  24.000   1.3473   0.32878   0.32807  -0.2373   0.0029   0.7638
  24.100   1.3498   0.33030   0.32959  -0.2386   0.0029   0.7653
  24.200   1.3525   0.33159   0.33089  -0.2398   0.0029   0.7656
  24.300   1.3558   0.33240   0.33170  -0.2406   0.0029   0.7672
  24.400   1.3582   0.33397   0.33328  -0.2419   0.0029   0.7683
  24.600   1.3581   0.34267   0.34198  -0.2477   0.0025   0.7695
  24.700   1.3609   0.34398   0.34329  -0.2488   0.0024   0.7704
  24.800   1.3640   0.34484   0.34416  -0.2497   0.0024   0.7711
  24.900   1.3666   0.34624   0.34555  -0.2509   0.0024   0.7713
  25.000   1.3695   0.34733   0.34665  -0.2520   0.0024   0.7723
