  
       XFOIL         Version 6.99
  
 Calculated polar for: NASA SC(2)-0710 AIRFOIL                         
  
 1 1 Reynolds number fixed          Mach number fixed         
  
 xtrf =   1.000 (top)        1.000 (bottom)  
 Mach =   0.670     Re =    29.611 e 6     Ncrit =   9.000
  
   alpha    CL        CD       CDp       CM     Top_Xtr  Bot_Xtr
  ------ -------- --------- --------- -------- -------- --------
  -3.000   0.2022   0.00617   0.00181  -0.1548   0.2186   0.0519
  -2.900   0.2192   0.00622   0.00181  -0.1549   0.1999   0.0526
  -2.800   0.2365   0.00625   0.00181  -0.1551   0.1839   0.0560
  -2.700   0.2540   0.00627   0.00181  -0.1554   0.1699   0.0595
  -2.600   0.2712   0.00631   0.00181  -0.1556   0.1520   0.0622
  -2.500   0.2887   0.00633   0.00181  -0.1558   0.1429   0.0671
  -2.400   0.3069   0.00630   0.00180  -0.1562   0.1396   0.0740
  -2.300   0.3240   0.00634   0.00181  -0.1564   0.1258   0.0765
  -2.200   0.3415   0.00637   0.00182  -0.1566   0.1111   0.0850
  -2.100   0.3592   0.00637   0.00182  -0.1569   0.1057   0.0924
  -2.000   0.3773   0.00637   0.00182  -0.1573   0.0979   0.1019
  -1.900   0.3945   0.00638   0.00183  -0.1574   0.0955   0.1026
  -1.800   0.4115   0.00642   0.00185  -0.1575   0.0876   0.1056
  -1.700   0.4288   0.00644   0.00186  -0.1577   0.0803   0.1106
  -1.600   0.4462   0.00647   0.00188  -0.1579   0.0693   0.1168
  -1.500   0.4644   0.00647   0.00189  -0.1583   0.0641   0.1321
  -1.400   0.4822   0.00647   0.00191  -0.1586   0.0580   0.1442
  -1.300   0.5001   0.00647   0.00192  -0.1589   0.0569   0.1552
  -1.200   0.5179   0.00648   0.00195  -0.1591   0.0535   0.1641
  -1.100   0.5357   0.00649   0.00196  -0.1593   0.0488   0.1758
  -1.000   0.5531   0.00651   0.00198  -0.1594   0.0474   0.1795
  -0.800   0.5892   0.00653   0.00204  -0.1600   0.0384   0.2119
  -0.700   0.6083   0.00651   0.00206  -0.1605   0.0361   0.2395
  -0.600   0.6255   0.00654   0.00210  -0.1604   0.0337   0.2435
  -0.500   0.6433   0.00655   0.00213  -0.1606   0.0324   0.2525
  -0.400   0.6611   0.00657   0.00216  -0.1606   0.0317   0.2624
  -0.300   0.6792   0.00658   0.00219  -0.1608   0.0310   0.2733
  -0.200   0.6973   0.00659   0.00223  -0.1609   0.0299   0.2872
  -0.100   0.7161   0.00659   0.00226  -0.1612   0.0285   0.3119
  -0.000   0.7358   0.00655   0.00229  -0.1616   0.0273   0.3454
   0.100   0.7553   0.00653   0.00233  -0.1620   0.0267   0.3763
   0.200   0.7744   0.00651   0.00236  -0.1622   0.0266   0.3992
   0.300   0.7924   0.00654   0.00241  -0.1621   0.0265   0.4078
   0.400   0.8107   0.00656   0.00245  -0.1621   0.0263   0.4192
   0.500   0.8292   0.00657   0.00249  -0.1620   0.0260   0.4331
   0.600   0.8479   0.00658   0.00253  -0.1620   0.0256   0.4482
   0.700   0.8665   0.00660   0.00259  -0.1619   0.0245   0.4640
   0.800   0.8860   0.00661   0.00265  -0.1620   0.0226   0.4916
   1.000   0.9229   0.00669   0.00277  -0.1614   0.0194   0.5155
   1.100   0.9409   0.00677   0.00287  -0.1610   0.0153   0.5229
   1.200   0.9597   0.00682   0.00295  -0.1607   0.0135   0.5371
   1.300   0.9779   0.00687   0.00302  -0.1601   0.0129   0.5395
   1.400   0.9961   0.00694   0.00310  -0.1595   0.0124   0.5404
   1.500   1.0146   0.00700   0.00318  -0.1589   0.0120   0.5429
   1.600   1.0334   0.00706   0.00325  -0.1583   0.0119   0.5462
   1.700   1.0525   0.00712   0.00333  -0.1576   0.0120   0.5495
   1.800   1.0717   0.00718   0.00343  -0.1567   0.0122   0.5518
   1.900   1.0910   0.00728   0.00356  -0.1557   0.0127   0.5540
   2.000   1.1093   0.00755   0.00392  -0.1540   0.0134   0.5559
   2.100   1.1256   0.00795   0.00444  -0.1522   0.0135   0.5596
   2.300   1.1517   0.00930   0.00604  -0.1480   0.0132   0.5662
   2.400   1.1637   0.01020   0.00706  -0.1460   0.0130   0.5681
   2.500   1.1757   0.01124   0.00823  -0.1441   0.0127   0.5690
