  
       XFOIL         Version 6.99
  
 Calculated polar for: NACA_64(2)-415                                  
  
 1 1 Reynolds number fixed          Mach number fixed         
  
 xtrf =   1.000 (top)        1.000 (bottom)  
 Mach =   0.560     Re =    14.700 e 6     Ncrit =   9.000
  
   alpha    CL        CD       CDp       CM     Top_Xtr  Bot_Xtr
  ------ -------- --------- --------- -------- -------- --------
  -5.000  -0.3035   0.00652   0.00236  -0.0926   0.5561   0.0181
  -4.900  -0.2881   0.00647   0.00230  -0.0925   0.5539   0.0186
  -4.800  -0.2727   0.00643   0.00225  -0.0924   0.5515   0.0190
  -4.700  -0.2573   0.00638   0.00219  -0.0923   0.5485   0.0194
  -4.600  -0.2418   0.00634   0.00214  -0.0923   0.5461   0.0196
  -4.500  -0.2263   0.00629   0.00209  -0.0923   0.5454   0.0201
  -4.400  -0.2109   0.00624   0.00203  -0.0923   0.5445   0.0212
  -4.300  -0.1955   0.00619   0.00198  -0.0923   0.5434   0.0222
  -4.200  -0.1802   0.00614   0.00193  -0.0923   0.5420   0.0229
  -4.100  -0.1649   0.00611   0.00189  -0.0923   0.5403   0.0233
  -4.000  -0.1496   0.00608   0.00185  -0.0923   0.5384   0.0236
  -3.900  -0.1344   0.00604   0.00181  -0.0923   0.5362   0.0243
  -3.800  -0.1192   0.00601   0.00177  -0.0924   0.5337   0.0257
  -3.700  -0.1040   0.00597   0.00173  -0.0924   0.5309   0.0267
  -3.600  -0.0888   0.00593   0.00169  -0.0925   0.5297   0.0276
  -3.500  -0.0735   0.00589   0.00165  -0.0926   0.5290   0.0281
  -3.400  -0.0582   0.00586   0.00162  -0.0927   0.5282   0.0285
  -3.300  -0.0430   0.00582   0.00158  -0.0928   0.5271   0.0302
  -3.200  -0.0278   0.00578   0.00155  -0.0929   0.5258   0.0319
  -3.100  -0.0127   0.00575   0.00151  -0.0930   0.5242   0.0330
  -2.900   0.0174   0.00569   0.00145  -0.0932   0.5207   0.0374
  -2.800   0.0324   0.00565   0.00142  -0.0933   0.5184   0.0402
  -2.700   0.0474   0.00561   0.00138  -0.0934   0.5158   0.0457
  -2.600   0.0625   0.00557   0.00135  -0.0936   0.5138   0.0505
  -2.500   0.0776   0.00550   0.00131  -0.0937   0.5133   0.0588
  -2.400   0.0926   0.00544   0.00128  -0.0939   0.5126   0.0667
  -2.300   0.1077   0.00538   0.00124  -0.0941   0.5117   0.0763
  -2.200   0.1228   0.00534   0.00121  -0.0943   0.5107   0.0842
  -2.100   0.1378   0.00529   0.00118  -0.0945   0.5094   0.0928
  -2.000   0.1528   0.00522   0.00115  -0.0947   0.5079   0.1083
  -1.900   0.1677   0.00515   0.00112  -0.0949   0.5061   0.1231
  -1.800   0.1826   0.00510   0.00109  -0.0951   0.5043   0.1358
  -1.700   0.1975   0.00504   0.00107  -0.0953   0.5020   0.1523
  -1.600   0.2125   0.00496   0.00103  -0.0955   0.4992   0.1738
  -1.500   0.2275   0.00489   0.00100  -0.0958   0.4976   0.1910
  -1.400   0.2426   0.00481   0.00097  -0.0960   0.4971   0.2093
  -1.300   0.2578   0.00475   0.00095  -0.0963   0.4963   0.2262
  -1.200   0.2729   0.00469   0.00093  -0.0965   0.4954   0.2418
  -1.100   0.2880   0.00462   0.00090  -0.0968   0.4943   0.2627
  -1.000   0.3030   0.00454   0.00088  -0.0971   0.4929   0.2848
  -0.900   0.3180   0.00445   0.00085  -0.0974   0.4913   0.3121
  -0.800   0.3331   0.00431   0.00081  -0.0978   0.4898   0.3542
  -0.700   0.3482   0.00420   0.00077  -0.0981   0.4879   0.3873
  -0.600   0.3632   0.00411   0.00076  -0.0984   0.4857   0.4156
  -0.500   0.3783   0.00409   0.00075  -0.0986   0.4835   0.4282
  -0.400   0.3935   0.00406   0.00075  -0.0989   0.4818   0.4400
  -0.300   0.4087   0.00405   0.00075  -0.0991   0.4814   0.4454
  -0.200   0.4239   0.00402   0.00075  -0.0993   0.4809   0.4533
  -0.100   0.4391   0.00402   0.00076  -0.0996   0.4803   0.4563
   0.000   0.4543   0.00402   0.00076  -0.0998   0.4796   0.4598
   0.100   0.4695   0.00402   0.00077  -0.1000   0.4787   0.4637
   0.200   0.4846   0.00402   0.00077  -0.1002   0.4773   0.4674
   0.300   0.4996   0.00403   0.00078  -0.1003   0.4752   0.4705
   0.400   0.5145   0.00405   0.00080  -0.1005   0.4724   0.4726
   0.500   0.5293   0.00407   0.00081  -0.1006   0.4682   0.4750
   0.600   0.5444   0.00407   0.00082  -0.1008   0.4655   0.4809
   0.700   0.5597   0.00407   0.00083  -0.1010   0.4643   0.4846
   0.800   0.5748   0.00408   0.00084  -0.1012   0.4627   0.4870
   0.900   0.5899   0.00409   0.00086  -0.1013   0.4606   0.4885
   1.000   0.6049   0.00411   0.00087  -0.1015   0.4585   0.4895
   1.100   0.6199   0.00413   0.00089  -0.1016   0.4566   0.4906
   1.200   0.6349   0.00415   0.00091  -0.1018   0.4538   0.4937
   1.300   0.6500   0.00417   0.00092  -0.1019   0.4500   0.4962
   1.400   0.6652   0.00418   0.00093  -0.1021   0.4490   0.4984
   1.500   0.6804   0.00419   0.00095  -0.1022   0.4467   0.5003
   1.600   0.6950   0.00424   0.00098  -0.1022   0.4405   0.5018
   1.700   0.7095   0.00429   0.00101  -0.1023   0.4329   0.5033
   1.800   0.7238   0.00435   0.00105  -0.1023   0.4240   0.5045
   1.900   0.7382   0.00442   0.00109  -0.1022   0.4154   0.5054
   2.000   0.7519   0.00451   0.00115  -0.1021   0.4026   0.5061
   2.200   0.7762   0.00487   0.00136  -0.1014   0.3563   0.5096
   2.300   0.7876   0.00509   0.00150  -0.1009   0.3295   0.5121
   2.400   0.7999   0.00525   0.00161  -0.1005   0.3083   0.5144
   2.500   0.8106   0.00550   0.00176  -0.0999   0.2768   0.5162
   2.600   0.8233   0.00565   0.00187  -0.0996   0.2593   0.5179
   2.700   0.8358   0.00580   0.00197  -0.0992   0.2421   0.5193
   2.800   0.8472   0.00602   0.00211  -0.0987   0.2190   0.5205
   3.000   0.8695   0.00645   0.00240  -0.0975   0.1701   0.5222
   3.100   0.8827   0.00657   0.00249  -0.0972   0.1608   0.5227
   3.200   0.8943   0.00676   0.00262  -0.0967   0.1419   0.5237
   3.400   0.9192   0.00704   0.00284  -0.0958   0.1175   0.5288
   3.500   0.9319   0.00717   0.00294  -0.0954   0.1064   0.5309
   3.600   0.9443   0.00731   0.00305  -0.0950   0.0953   0.5330
   3.700   0.9568   0.00744   0.00317  -0.0945   0.0853   0.5348
   3.800   0.9693   0.00757   0.00328  -0.0940   0.0783   0.5365
   3.900   0.9823   0.00768   0.00337  -0.0936   0.0713   0.5377
   4.000   0.9944   0.00783   0.00349  -0.0930   0.0625   0.5387
   4.100   1.0065   0.00797   0.00362  -0.0924   0.0559   0.5395
   4.200   1.0183   0.00812   0.00375  -0.0918   0.0480   0.5410
   4.300   1.0296   0.00829   0.00390  -0.0911   0.0393   0.5442
   4.400   1.0419   0.00841   0.00401  -0.0905   0.0348   0.5469
   4.500   1.0542   0.00853   0.00413  -0.0899   0.0305   0.5491
   4.600   1.0665   0.00865   0.00425  -0.0893   0.0275   0.5511
   4.700   1.0796   0.00874   0.00435  -0.0888   0.0261   0.5528
   4.800   1.0926   0.00883   0.00445  -0.0882   0.0252   0.5542
   4.900   1.1053   0.00894   0.00455  -0.0876   0.0242   0.5553
   5.000   1.1177   0.00904   0.00467  -0.0870   0.0227   0.5561
   5.100   1.1306   0.00914   0.00477  -0.0864   0.0220   0.5576
   5.200   1.1432   0.00923   0.00488  -0.0857   0.0213   0.5608
   5.300   1.1561   0.00932   0.00498  -0.0851   0.0212   0.5636
   5.400   1.1681   0.00943   0.00510  -0.0843   0.0202   0.5659
   5.500   1.1795   0.00956   0.00523  -0.0834   0.0188   0.5680
   5.600   1.1903   0.00966   0.00535  -0.0824   0.0180   0.5698
   5.700   1.1997   0.00974   0.00545  -0.0811   0.0178   0.5713
   5.800   1.2081   0.00986   0.00557  -0.0796   0.0167   0.5724
   5.900   1.2167   0.00999   0.00571  -0.0782   0.0160   0.5732
   6.000   1.2241   0.01017   0.00589  -0.0766   0.0138   0.5757
   6.100   1.2329   0.01032   0.00606  -0.0753   0.0130   0.5789
   6.200   1.2411   0.01049   0.00625  -0.0739   0.0118   0.5817
   6.300   1.2504   0.01065   0.00642  -0.0726   0.0113   0.5841
   6.400   1.2589   0.01083   0.00662  -0.0712   0.0106   0.5861
   6.500   1.2673   0.01103   0.00683  -0.0699   0.0098   0.5878
   6.600   1.2763   0.01122   0.00704  -0.0686   0.0095   0.5891
   6.700   1.2853   0.01142   0.00726  -0.0673   0.0091   0.5900
   6.800   1.2944   0.01163   0.00749  -0.0661   0.0089   0.5927
   6.900   1.3039   0.01183   0.00772  -0.0649   0.0088   0.5963
   7.000   1.3129   0.01206   0.00797  -0.0637   0.0087   0.5991
   7.100   1.3222   0.01230   0.00823  -0.0625   0.0086   0.6015
   7.200   1.3313   0.01254   0.00850  -0.0612   0.0087   0.6036
   7.300   1.3403   0.01281   0.00879  -0.0600   0.0086   0.6054
   7.400   1.3489   0.01310   0.00911  -0.0587   0.0086   0.6066
   7.500   1.3581   0.01339   0.00941  -0.0576   0.0086   0.6084
   7.600   1.3662   0.01372   0.00978  -0.0563   0.0086   0.6122
   7.700   1.3748   0.01405   0.01014  -0.0550   0.0086   0.6155
   7.800   1.3830   0.01441   0.01054  -0.0537   0.0087   0.6182
   7.900   1.3897   0.01484   0.01100  -0.0523   0.0087   0.6204
   8.000   1.3966   0.01529   0.01149  -0.0509   0.0088   0.6222
   8.100   1.4030   0.01577   0.01200  -0.0495   0.0089   0.6236
   8.200   1.4074   0.01635   0.01263  -0.0480   0.0090   0.6254
   8.300   1.4123   0.01694   0.01326  -0.0465   0.0092   0.6293
   8.400   1.4153   0.01762   0.01400  -0.0450   0.0093   0.6324
   8.500   1.4145   0.01851   0.01496  -0.0432   0.0093   0.6351
   8.600   1.4123   0.01951   0.01603  -0.0414   0.0091   0.6378
   8.700   1.4059   0.02075   0.01734  -0.0394   0.0089   0.6395
   8.800   1.3990   0.02204   0.01870  -0.0376   0.0087   0.6409
   8.900   1.3930   0.02333   0.02006  -0.0359   0.0085   0.6421
   9.000   1.3883   0.02456   0.02135  -0.0344   0.0086   0.6459
   9.100   1.3853   0.02573   0.02258  -0.0330   0.0085   0.6494
   9.200   1.3819   0.02693   0.02385  -0.0317   0.0085   0.6529
   9.300   1.3787   0.02816   0.02513  -0.0305   0.0085   0.6544
   9.400   1.3740   0.02949   0.02651  -0.0293   0.0084   0.6569
   9.500   1.3711   0.03075   0.02783  -0.0282   0.0084   0.6582
   9.600   1.3693   0.03196   0.02910  -0.0272   0.0085   0.6605
   9.700   1.3653   0.03335   0.03055  -0.0262   0.0084   0.6646
   9.800   1.3613   0.03475   0.03200  -0.0252   0.0084   0.6670
   9.900   1.3589   0.03610   0.03341  -0.0244   0.0084   0.6700
  10.000   1.3562   0.03748   0.03485  -0.0236   0.0084   0.6716
  10.100   1.3531   0.03895   0.03638  -0.0229   0.0084   0.6739
  10.200   1.3488   0.04052   0.03801  -0.0222   0.0084   0.6751
  10.300   1.3456   0.04206   0.03960  -0.0217   0.0083   0.6766
  10.400   1.3419   0.04366   0.04127  -0.0213   0.0084   0.6805
  10.500   1.3382   0.04532   0.04299  -0.0210   0.0084   0.6837
  10.600   1.3344   0.04704   0.04476  -0.0207   0.0084   0.6861
  10.700   1.3275   0.04903   0.04681  -0.0206   0.0083   0.6881
  10.800   1.3245   0.05074   0.04857  -0.0205   0.0084   0.6900
  10.900   1.3188   0.05272   0.05061  -0.0206   0.0083   0.6913
  11.000   1.3128   0.05479   0.05273  -0.0208   0.0083   0.6925
  11.100   1.3083   0.05678   0.05476  -0.0210   0.0083   0.6945
  11.200   1.3004   0.05910   0.05715  -0.0215   0.0082   0.6972
  11.300   1.2956   0.06119   0.05929  -0.0220   0.0082   0.7000
  11.400   1.2887   0.06353   0.06167  -0.0226   0.0081   0.7023
  11.500   1.2821   0.06591   0.06411  -0.0233   0.0081   0.7044
  11.600   1.2755   0.06833   0.06658  -0.0241   0.0080   0.7060
  11.700   1.2690   0.07079   0.06908  -0.0250   0.0079   0.7075
  11.800   1.2624   0.07330   0.07163  -0.0260   0.0079   0.7087
  11.900   1.2560   0.07584   0.07421  -0.0271   0.0079   0.7096
  12.000   1.2483   0.07859   0.07701  -0.0284   0.0078   0.7108
  12.100   1.2418   0.08125   0.07971  -0.0296   0.0078   0.7133
  12.200   1.2355   0.08397   0.08246  -0.0310   0.0078   0.7158
  12.300   1.2285   0.08682   0.08535  -0.0325   0.0077   0.7179
  12.400   1.2222   0.08959   0.08817  -0.0340   0.0077   0.7198
  12.500   1.2156   0.09249   0.09110  -0.0357   0.0077   0.7215
  12.600   1.2092   0.09541   0.09405  -0.0374   0.0076   0.7230
  12.700   1.2026   0.09842   0.09710  -0.0393   0.0076   0.7243
  12.800   1.1969   0.10138   0.10008  -0.0411   0.0076   0.7254
  12.900   1.1909   0.10442   0.10316  -0.0430   0.0076   0.7264
  13.000   1.1852   0.10748   0.10624  -0.0450   0.0075   0.7272
  13.100   1.1798   0.11051   0.10930  -0.0470   0.0075   0.7290
  13.200   1.1743   0.11360   0.11241  -0.0490   0.0075   0.7314
  13.300   1.1690   0.11672   0.11557  -0.0512   0.0075   0.7336
  13.400   1.1644   0.11979   0.11866  -0.0532   0.0074   0.7357
  13.500   1.1596   0.12293   0.12182  -0.0554   0.0074   0.7375
  13.600   1.1551   0.12606   0.12497  -0.0575   0.0074   0.7392
  13.700   1.1502   0.12926   0.12819  -0.0598   0.0074   0.7407
  13.800   1.1455   0.13247   0.13142  -0.0620   0.0073   0.7420
  13.900   1.1413   0.13560   0.13456  -0.0642   0.0073   0.7431
  14.000   1.1367   0.13879   0.13777  -0.0664   0.0072   0.7441
  14.100   1.1331   0.14185   0.14084  -0.0685   0.0072   0.7459
  14.200   1.1294   0.14496   0.14397  -0.0706   0.0072   0.7487
  14.300   1.1260   0.14804   0.14706  -0.0728   0.0071   0.7511
  14.400   1.1226   0.15112   0.15015  -0.0749   0.0071   0.7534
  14.500   1.1193   0.15418   0.15321  -0.0770   0.0070   0.7555
  14.600   1.1163   0.15720   0.15624  -0.0790   0.0070   0.7575
  14.700   1.1134   0.16021   0.15926  -0.0811   0.0069   0.7591
  14.800   1.1106   0.16324   0.16228  -0.0832   0.0069   0.7605
  14.900   1.1082   0.16623   0.16528  -0.0852   0.0068   0.7623
  15.000   1.1060   0.16922   0.16827  -0.0873   0.0067   0.7657
