  
       XFOIL         Version 6.99
  
 Calculated polar for: NASA_sc_20410                                   
  
 1 1 Reynolds number fixed          Mach number fixed         
  
 xtrf =   1.000 (top)        1.000 (bottom)  
 Mach =   0.200     Re =    22.300 e 6     Ncrit =   9.000
  
   alpha    CL        CD       CDp       CM     Top_Xtr  Bot_Xtr
  ------ -------- --------- --------- -------- -------- --------
  -5.000  -0.3674   0.00549   0.00164  -0.0632   0.7099   0.0233
  -4.900  -0.3550   0.00547   0.00161  -0.0633   0.7031   0.0242
  -4.800  -0.3427   0.00546   0.00157  -0.0635   0.6882   0.0264
  -4.700  -0.3305   0.00549   0.00155  -0.0637   0.6643   0.0273
  -4.600  -0.3183   0.00550   0.00153  -0.0639   0.6473   0.0278
  -4.500  -0.3061   0.00552   0.00151  -0.0640   0.6296   0.0281
  -4.300  -0.2817   0.00556   0.00147  -0.0644   0.5965   0.0283
  -4.200  -0.2694   0.00555   0.00145  -0.0645   0.5880   0.0287
  -4.100  -0.2572   0.00556   0.00143  -0.0647   0.5736   0.0301
  -3.900  -0.2327   0.00558   0.00139  -0.0650   0.5433   0.0323
  -3.800  -0.2204   0.00557   0.00137  -0.0652   0.5331   0.0332
  -3.700  -0.2081   0.00556   0.00135  -0.0654   0.5286   0.0339
  -3.600  -0.1958   0.00556   0.00134  -0.0656   0.5195   0.0343
  -3.500  -0.1835   0.00554   0.00132  -0.0658   0.5136   0.0366
  -3.400  -0.1713   0.00558   0.00131  -0.0659   0.4887   0.0387
  -3.300  -0.1590   0.00559   0.00129  -0.0661   0.4715   0.0405
  -3.200  -0.1469   0.00562   0.00127  -0.0663   0.4493   0.0413
  -3.100  -0.1347   0.00567   0.00127  -0.0665   0.4254   0.0434
  -3.000  -0.1224   0.00568   0.00125  -0.0667   0.4072   0.0474
  -2.900  -0.1101   0.00569   0.00123  -0.0669   0.3874   0.0496
  -2.800  -0.0979   0.00570   0.00122  -0.0670   0.3800   0.0501
  -2.700  -0.0858   0.00576   0.00122  -0.0672   0.3485   0.0513
  -2.600  -0.0737   0.00580   0.00121  -0.0674   0.3276   0.0536
  -2.500  -0.0614   0.00579   0.00120  -0.0675   0.3195   0.0566
  -2.400  -0.0491   0.00580   0.00119  -0.0677   0.3070   0.0589
  -2.300  -0.0369   0.00582   0.00119  -0.0679   0.2919   0.0602
  -2.200  -0.0247   0.00584   0.00118  -0.0681   0.2808   0.0629
  -2.100  -0.0123   0.00581   0.00116  -0.0683   0.2752   0.0693
  -2.000   0.0001   0.00579   0.00115  -0.0685   0.2717   0.0737
  -1.900   0.0124   0.00580   0.00114  -0.0687   0.2588   0.0799
  -1.800   0.0248   0.00581   0.00114  -0.0689   0.2443   0.0849
  -1.600   0.0490   0.00588   0.00114  -0.0692   0.2085   0.0923
  -1.500   0.0614   0.00588   0.00113  -0.0694   0.1976   0.0977
  -1.400   0.0737   0.00589   0.00113  -0.0696   0.1849   0.1071
  -1.300   0.0862   0.00588   0.00113  -0.0698   0.1751   0.1177
  -1.200   0.0987   0.00588   0.00112  -0.0701   0.1630   0.1293
  -1.100   0.1109   0.00589   0.00112  -0.0702   0.1518   0.1353
  -1.000   0.1233   0.00590   0.00112  -0.0705   0.1384   0.1446
  -0.900   0.1355   0.00591   0.00112  -0.0706   0.1335   0.1501
  -0.700   0.1603   0.00589   0.00112  -0.0710   0.1227   0.1685
  -0.600   0.1727   0.00587   0.00112  -0.0712   0.1214   0.1755
  -0.500   0.1848   0.00589   0.00112  -0.0713   0.1174   0.1769
  -0.400   0.1971   0.00589   0.00113  -0.0715   0.1107   0.1868
  -0.300   0.2094   0.00589   0.00113  -0.0717   0.1075   0.1926
  -0.100   0.2347   0.00584   0.00114  -0.0723   0.0934   0.2326
   0.100   0.2597   0.00582   0.00115  -0.0727   0.0839   0.2642
   0.200   0.2719   0.00582   0.00115  -0.0729   0.0795   0.2703
   0.400   0.2965   0.00585   0.00118  -0.0732   0.0673   0.2880
   0.500   0.3091   0.00582   0.00119  -0.0735   0.0653   0.3084
   0.600   0.3216   0.00581   0.00120  -0.0738   0.0612   0.3263
   0.700   0.3341   0.00580   0.00121  -0.0740   0.0558   0.3430
   0.800   0.3468   0.00576   0.00121  -0.0743   0.0548   0.3648
   1.000   0.3722   0.00570   0.00124  -0.0749   0.0494   0.4146
   1.100   0.3849   0.00567   0.00124  -0.0752   0.0465   0.4364
   1.200   0.3974   0.00565   0.00125  -0.0754   0.0459   0.4527
   1.300   0.4097   0.00565   0.00127  -0.0756   0.0451   0.4628
   1.500   0.4343   0.00568   0.00131  -0.0759   0.0394   0.4837
   1.600   0.4466   0.00567   0.00132  -0.0761   0.0381   0.4957
   1.700   0.4597   0.00561   0.00133  -0.0764   0.0371   0.5302
   1.800   0.4722   0.00560   0.00135  -0.0767   0.0357   0.5505
   1.900   0.4848   0.00558   0.00137  -0.0769   0.0342   0.5727
   2.000   0.4970   0.00559   0.00139  -0.0771   0.0329   0.5812
   2.100   0.5090   0.00561   0.00141  -0.0771   0.0317   0.5826
   2.200   0.5212   0.00562   0.00143  -0.0772   0.0315   0.5900
   2.300   0.5333   0.00564   0.00145  -0.0773   0.0313   0.5932
   2.400   0.5453   0.00567   0.00148  -0.0774   0.0310   0.5955
   2.500   0.5573   0.00570   0.00150  -0.0774   0.0305   0.5967
   2.600   0.5692   0.00574   0.00153  -0.0775   0.0296   0.5972
   2.700   0.5812   0.00578   0.00156  -0.0775   0.0284   0.5997
   2.800   0.5932   0.00581   0.00158  -0.0776   0.0272   0.6023
   2.900   0.6053   0.00583   0.00161  -0.0777   0.0260   0.6049
   3.000   0.6173   0.00586   0.00164  -0.0777   0.0259   0.6069
   3.100   0.6293   0.00589   0.00166  -0.0778   0.0257   0.6089
   3.200   0.6413   0.00592   0.00169  -0.0778   0.0251   0.6100
   3.300   0.6532   0.00598   0.00173  -0.0779   0.0231   0.6105
   3.400   0.6651   0.00603   0.00177  -0.0779   0.0213   0.6112
   3.500   0.6770   0.00607   0.00180  -0.0779   0.0208   0.6115
   3.600   0.6888   0.00614   0.00185  -0.0779   0.0186   0.6118
   3.700   0.7007   0.00618   0.00189  -0.0779   0.0170   0.6122
   3.800   0.7126   0.00624   0.00193  -0.0780   0.0159   0.6138
   3.900   0.7245   0.00630   0.00198  -0.0780   0.0139   0.6154
   4.000   0.7364   0.00634   0.00202  -0.0780   0.0136   0.6173
   4.100   0.7484   0.00639   0.00206  -0.0780   0.0132   0.6189
   4.200   0.7603   0.00643   0.00211  -0.0781   0.0127   0.6202
   4.300   0.7722   0.00648   0.00215  -0.0781   0.0122   0.6216
   4.400   0.7841   0.00653   0.00219  -0.0781   0.0117   0.6227
   4.500   0.7960   0.00657   0.00223  -0.0781   0.0112   0.6238
   4.600   0.8079   0.00662   0.00227  -0.0781   0.0110   0.6247
   4.700   0.8199   0.00666   0.00231  -0.0781   0.0110   0.6254
   4.800   0.8318   0.00670   0.00235  -0.0781   0.0109   0.6261
   4.900   0.8437   0.00674   0.00239  -0.0781   0.0109   0.6270
   5.000   0.8556   0.00679   0.00243  -0.0781   0.0108   0.6294
   5.100   0.8676   0.00683   0.00247  -0.0781   0.0108   0.6324
   5.200   0.8795   0.00687   0.00252  -0.0781   0.0106   0.6337
   5.300   0.8914   0.00691   0.00256  -0.0781   0.0106   0.6365
   5.400   0.9033   0.00697   0.00262  -0.0781   0.0103   0.6381
   5.500   0.9151   0.00702   0.00267  -0.0781   0.0102   0.6390
   5.600   0.9270   0.00708   0.00272  -0.0781   0.0099   0.6397
   5.700   0.9388   0.00714   0.00277  -0.0781   0.0097   0.6404
   5.800   0.9506   0.00721   0.00283  -0.0780   0.0093   0.6407
   5.900   0.9625   0.00726   0.00288  -0.0780   0.0092   0.6411
   6.000   0.9743   0.00732   0.00294  -0.0780   0.0090   0.6414
   6.100   0.9861   0.00738   0.00300  -0.0779   0.0088   0.6425
   6.200   0.9980   0.00744   0.00306  -0.0779   0.0086   0.6445
   6.300   1.0098   0.00750   0.00312  -0.0778   0.0085   0.6464
   6.400   1.0217   0.00755   0.00319  -0.0778   0.0085   0.6489
   6.500   1.0335   0.00762   0.00325  -0.0778   0.0084   0.6503
   6.600   1.0454   0.00767   0.00332  -0.0777   0.0084   0.6522
   6.700   1.0572   0.00773   0.00337  -0.0777   0.0084   0.6536
   6.800   1.0690   0.00779   0.00343  -0.0776   0.0084   0.6549
   6.900   1.0808   0.00785   0.00349  -0.0775   0.0084   0.6555
   7.000   1.0926   0.00791   0.00355  -0.0775   0.0084   0.6560
   7.100   1.1044   0.00797   0.00361  -0.0774   0.0084   0.6565
   7.200   1.1162   0.00803   0.00367  -0.0773   0.0084   0.6581
   7.300   1.1281   0.00809   0.00373  -0.0773   0.0084   0.6606
   7.400   1.1399   0.00815   0.00379  -0.0772   0.0084   0.6626
   7.500   1.1517   0.00820   0.00385  -0.0771   0.0084   0.6641
   7.600   1.1635   0.00826   0.00391  -0.0771   0.0084   0.6656
   7.700   1.1753   0.00833   0.00397  -0.0770   0.0083   0.6668
   7.800   1.1871   0.00839   0.00404  -0.0769   0.0083   0.6678
   7.900   1.1989   0.00846   0.00411  -0.0768   0.0083   0.6687
   8.000   1.2106   0.00852   0.00417  -0.0767   0.0083   0.6693
   8.100   1.2224   0.00859   0.00424  -0.0766   0.0083   0.6698
   8.200   1.2341   0.00866   0.00431  -0.0765   0.0083   0.6702
   8.300   1.2458   0.00873   0.00438  -0.0764   0.0083   0.6706
   8.400   1.2576   0.00880   0.00445  -0.0763   0.0083   0.6709
   8.500   1.2693   0.00887   0.00452  -0.0762   0.0083   0.6711
   8.600   1.2810   0.00894   0.00459  -0.0760   0.0083   0.6713
   8.700   1.2927   0.00901   0.00466  -0.0759   0.0083   0.6715
   8.800   1.3044   0.00909   0.00474  -0.0758   0.0082   0.6716
   8.900   1.3161   0.00917   0.00482  -0.0756   0.0082   0.6717
   9.000   1.3278   0.00924   0.00489  -0.0755   0.0082   0.6718
   9.100   1.3395   0.00932   0.00497  -0.0753   0.0082   0.6719
   9.200   1.3511   0.00940   0.00505  -0.0752   0.0081   0.6727
   9.300   1.3628   0.00948   0.00513  -0.0750   0.0081   0.6737
   9.400   1.3745   0.00956   0.00521  -0.0749   0.0081   0.6749
   9.500   1.3862   0.00964   0.00529  -0.0747   0.0080   0.6761
   9.600   1.3978   0.00972   0.00538  -0.0746   0.0080   0.6775
   9.700   1.4095   0.00980   0.00547  -0.0744   0.0079   0.6789
   9.800   1.4211   0.00989   0.00556  -0.0742   0.0079   0.6800
   9.900   1.4327   0.00998   0.00565  -0.0741   0.0078   0.6810
  10.000   1.4443   0.01007   0.00575  -0.0739   0.0077   0.6820
  10.100   1.4558   0.01017   0.00584  -0.0737   0.0077   0.6828
  10.200   1.4674   0.01027   0.00595  -0.0735   0.0076   0.6837
  10.300   1.4788   0.01038   0.00606  -0.0733   0.0075   0.6845
  10.400   1.4903   0.01048   0.00616  -0.0730   0.0074   0.6852
  10.500   1.5017   0.01060   0.00628  -0.0728   0.0072   0.6858
  10.600   1.5132   0.01071   0.00639  -0.0726   0.0072   0.6863
  10.700   1.5246   0.01081   0.00650  -0.0723   0.0071   0.6867
  10.800   1.5360   0.01094   0.00663  -0.0721   0.0070   0.6871
  10.900   1.5474   0.01105   0.00676  -0.0718   0.0069   0.6874
  11.000   1.5587   0.01119   0.00689  -0.0716   0.0067   0.6876
  11.100   1.5700   0.01130   0.00702  -0.0713   0.0067   0.6878
  11.200   1.5813   0.01144   0.00716  -0.0710   0.0066   0.6880
  11.300   1.5925   0.01158   0.00731  -0.0707   0.0065   0.6881
  11.400   1.6038   0.01171   0.00745  -0.0704   0.0065   0.6884
  11.500   1.6150   0.01184   0.00759  -0.0701   0.0064   0.6894
  11.600   1.6262   0.01199   0.00775  -0.0698   0.0064   0.6906
  11.700   1.6374   0.01213   0.00790  -0.0695   0.0063   0.6919
  11.800   1.6485   0.01227   0.00806  -0.0692   0.0063   0.6932
  11.900   1.6596   0.01242   0.00823  -0.0689   0.0063   0.6945
  12.000   1.6706   0.01258   0.00841  -0.0685   0.0062   0.6956
  12.100   1.6816   0.01275   0.00860  -0.0681   0.0062   0.6967
  12.200   1.6928   0.01288   0.00873  -0.0678   0.0062   0.6977
  12.300   1.7041   0.01299   0.00885  -0.0675   0.0062   0.6986
  12.400   1.7152   0.01313   0.00901  -0.0672   0.0062   0.6995
  12.500   1.7264   0.01327   0.00915  -0.0668   0.0062   0.7004
  12.600   1.7375   0.01340   0.00929  -0.0665   0.0062   0.7012
  12.700   1.7485   0.01354   0.00944  -0.0661   0.0062   0.7019
  12.800   1.7596   0.01369   0.00960  -0.0657   0.0062   0.7025
  12.900   1.7705   0.01384   0.00976  -0.0653   0.0062   0.7031
  13.000   1.7815   0.01398   0.00991  -0.0650   0.0062   0.7036
  13.100   1.7925   0.01413   0.01007  -0.0646   0.0062   0.7040
  13.200   1.8033   0.01430   0.01025  -0.0641   0.0062   0.7043
  13.300   1.8141   0.01446   0.01042  -0.0637   0.0062   0.7046
  13.400   1.8249   0.01462   0.01060  -0.0633   0.0062   0.7048
  13.500   1.8357   0.01477   0.01076  -0.0629   0.0062   0.7058
  13.600   1.8464   0.01494   0.01095  -0.0624   0.0062   0.7075
  13.700   1.8572   0.01511   0.01112  -0.0620   0.0062   0.7093
  13.800   1.8679   0.01527   0.01131  -0.0615   0.0062   0.7109
  13.900   1.8785   0.01545   0.01149  -0.0610   0.0062   0.7125
  14.000   1.8890   0.01563   0.01170  -0.0605   0.0061   0.7139
  14.100   1.8996   0.01579   0.01187  -0.0601   0.0061   0.7153
  14.200   1.9101   0.01598   0.01207  -0.0596   0.0061   0.7165
  14.300   1.9205   0.01616   0.01227  -0.0590   0.0061   0.7176
  14.400   1.9309   0.01634   0.01246  -0.0585   0.0061   0.7187
  14.500   1.9412   0.01653   0.01267  -0.0580   0.0061   0.7196
  14.600   1.9515   0.01672   0.01287  -0.0574   0.0061   0.7203
  14.700   1.9616   0.01693   0.01310  -0.0568   0.0061   0.7210
  14.800   1.9717   0.01712   0.01331  -0.0563   0.0061   0.7215
  14.900   1.9817   0.01734   0.01354  -0.0557   0.0061   0.7221
  15.000   1.9917   0.01754   0.01376  -0.0551   0.0061   0.7242
  15.100   2.0016   0.01775   0.01399  -0.0545   0.0061   0.7267
  15.200   2.0117   0.01794   0.01419  -0.0539   0.0061   0.7289
  15.300   2.0212   0.01817   0.01445  -0.0532   0.0061   0.7309
  15.400   2.0310   0.01838   0.01468  -0.0526   0.0060   0.7327
  15.500   2.0406   0.01860   0.01491  -0.0519   0.0060   0.7343
  15.600   2.0499   0.01885   0.01518  -0.0512   0.0060   0.7357
  15.700   2.0594   0.01906   0.01541  -0.0505   0.0060   0.7368
  15.800   2.0686   0.01931   0.01567  -0.0498   0.0060   0.7376
  15.900   2.0776   0.01955   0.01594  -0.0490   0.0060   0.7383
  16.000   2.0866   0.01980   0.01620  -0.0483   0.0060   0.7389
  16.100   2.0953   0.02006   0.01649  -0.0475   0.0059   0.7413
  16.200   2.1038   0.02034   0.01679  -0.0466   0.0059   0.7442
  16.300   2.1124   0.02060   0.01707  -0.0458   0.0059   0.7465
  16.400   2.1209   0.02086   0.01735  -0.0450   0.0059   0.7486
  16.500   2.1290   0.02114   0.01765  -0.0441   0.0058   0.7505
  16.600   2.1369   0.02143   0.01797  -0.0432   0.0058   0.7522
  16.700   2.1448   0.02171   0.01827  -0.0423   0.0058   0.7535
  16.800   2.1523   0.02200   0.01859  -0.0413   0.0058   0.7545
  16.900   2.1593   0.02233   0.01894  -0.0403   0.0058   0.7552
  17.000   2.1664   0.02263   0.01926  -0.0393   0.0057   0.7576
  17.100   2.1733   0.02294   0.01959  -0.0382   0.0057   0.7607
  17.200   2.1784   0.02331   0.02000  -0.0369   0.0057   0.7633
  17.300   2.1841   0.02361   0.02031  -0.0357   0.0056   0.7657
  17.400   2.1883   0.02395   0.02068  -0.0343   0.0056   0.7676
  17.500   2.1916   0.02430   0.02106  -0.0327   0.0056   0.7690
  17.600   2.1949   0.02465   0.02143  -0.0312   0.0056   0.7700
  17.700   2.1944   0.02502   0.02183  -0.0290   0.0056   0.7707
  17.800   2.1951   0.02540   0.02223  -0.0272   0.0055   0.7713
  17.900   2.1961   0.02585   0.02271  -0.0254   0.0055   0.7728
  18.000   2.1975   0.02629   0.02317  -0.0238   0.0055   0.7754
  18.100   2.1985   0.02680   0.02371  -0.0222   0.0055   0.7779
  18.200   2.2001   0.02730   0.02424  -0.0207   0.0055   0.7799
  18.300   2.2010   0.02785   0.02482  -0.0192   0.0054   0.7817
  18.400   2.2016   0.02844   0.02545  -0.0178   0.0054   0.7833
  18.500   2.2032   0.02901   0.02604  -0.0165   0.0054   0.7846
  18.600   2.2035   0.02967   0.02673  -0.0152   0.0054   0.7855
  18.700   2.2037   0.03035   0.02744  -0.0139   0.0054   0.7862
  18.800   2.2039   0.03107   0.02818  -0.0127   0.0053   0.7867
  18.900   2.2038   0.03183   0.02898  -0.0116   0.0053   0.7887
  19.000   2.2036   0.03264   0.02982  -0.0105   0.0053   0.7912
  19.100   2.2030   0.03348   0.03070  -0.0095   0.0053   0.7934
  19.200   2.2021   0.03438   0.03163  -0.0085   0.0053   0.7951
  19.300   2.2004   0.03536   0.03264  -0.0076   0.0052   0.7968
  19.400   2.1990   0.03637   0.03368  -0.0068   0.0052   0.7982
  19.500   2.1974   0.03743   0.03478  -0.0061   0.0052   0.7995
  19.600   2.1947   0.03862   0.03600  -0.0055   0.0052   0.8003
  19.700   2.1919   0.03984   0.03725  -0.0049   0.0052   0.8011
  19.800   2.1888   0.04111   0.03855  -0.0045   0.0052   0.8017
  19.900   2.1844   0.04255   0.04003  -0.0041   0.0051   0.8035
  20.000   2.1806   0.04400   0.04152  -0.0039   0.0051   0.8060
  20.100   2.1762   0.04556   0.04312  -0.0038   0.0051   0.8082
  20.200   2.1700   0.04735   0.04495  -0.0039   0.0051   0.8100
  20.300   2.1653   0.04905   0.04669  -0.0040   0.0051   0.8117
  20.400   2.1582   0.05103   0.04870  -0.0044   0.0051   0.8132
  20.500   2.1501   0.05317   0.05088  -0.0049   0.0051   0.8143
  20.600   2.1415   0.05548   0.05324  -0.0056   0.0051   0.8154
  20.700   2.1325   0.05794   0.05573  -0.0066   0.0050   0.8162
  20.800   2.1214   0.06074   0.05858  -0.0078   0.0050   0.8176
  20.900   2.1103   0.06366   0.06154  -0.0093   0.0050   0.8198
  21.000   2.0965   0.06705   0.06499  -0.0112   0.0050   0.8220
  21.100   2.0821   0.07057   0.06855  -0.0132   0.0050   0.8235
  21.200   2.0650   0.07462   0.07265  -0.0158   0.0050   0.8251
  21.300   2.0459   0.07909   0.07717  -0.0187   0.0051   0.8260
  21.400   2.0234   0.08417   0.08230  -0.0221   0.0051   0.8267
  21.500   1.9927   0.09060   0.08879  -0.0266   0.0051   0.8265
  21.600   1.9492   0.09894   0.09720  -0.0324   0.0051   0.8253
  21.700   1.8898   0.10991   0.10825  -0.0400   0.0052   0.8225
  21.900   1.2855   0.23721   0.23627  -0.1447   0.0059   0.7867
  22.000   1.2870   0.23886   0.23792  -0.1460   0.0058   0.7883
  22.100   1.2883   0.24063   0.23970  -0.1474   0.0058   0.7906
  22.200   1.2898   0.24230   0.24137  -0.1487   0.0058   0.7924
  22.300   1.2905   0.24424   0.24332  -0.1503   0.0057   0.7939
  22.400   1.2752   0.25176   0.25087  -0.1562   0.0056   0.7942
  22.500   1.2771   0.25333   0.25245  -0.1574   0.0055   0.7955
  22.600   1.2792   0.25486   0.25398  -0.1587   0.0055   0.7971
  22.700   1.2811   0.25644   0.25557  -0.1600   0.0054   0.7980
  22.800   1.2829   0.25801   0.25714  -0.1613   0.0054   0.7995
  22.900   1.2851   0.25945   0.25858  -0.1624   0.0054   0.8002
  23.000   1.2849   0.26174   0.26087  -0.1643   0.0052   0.8007
  23.100   1.2717   0.26909   0.26825  -0.1700   0.0050   0.8007
  23.200   1.2730   0.27093   0.27009  -0.1714   0.0048   0.8013
  23.400   1.2761   0.27445   0.27362  -0.1743   0.0046   0.8045
  23.500   1.2773   0.27641   0.27559  -0.1759   0.0046   0.8063
  23.700   1.2694   0.28500   0.28423  -0.1823   0.0044   0.8088
  23.800   1.2716   0.28658   0.28581  -0.1836   0.0044   0.8106
  23.900   1.2739   0.28806   0.28730  -0.1849   0.0044   0.8119
  24.000   1.2764   0.28947   0.28872  -0.1861   0.0044   0.8136
  24.100   1.2678   0.29655   0.29582  -0.1910   0.0043   0.8136
  24.200   1.2708   0.29771   0.29699  -0.1920   0.0043   0.8151
  24.300   1.2730   0.29932   0.29861  -0.1934   0.0043   0.8160
  24.500   1.2786   0.30181   0.30110  -0.1956   0.0043   0.8204
  24.700   1.2592   0.32201   0.32134  -0.2080   0.0029   0.8184
  24.800   1.2624   0.32302   0.32235  -0.2090   0.0029   0.8219
  24.900   1.2655   0.32414   0.32348  -0.2101   0.0029   0.8246
  25.000   1.2690   0.32484   0.32418  -0.2109   0.0029   0.8270
  25.100   1.2721   0.32586   0.32521  -0.2119   0.0029   0.8291
  25.200   1.2754   0.32682   0.32618  -0.2128   0.0029   0.8309
  25.300   1.2789   0.32750   0.32686  -0.2136   0.0029   0.8352
  25.400   1.2762   0.33442   0.33378  -0.2176   0.0025   0.8355
  25.500   1.2791   0.33580   0.33518  -0.2188   0.0025   0.8395
  25.600   1.2821   0.33689   0.33627  -0.2199   0.0024   0.8426
  25.700   1.2851   0.33799   0.33737  -0.2209   0.0024   0.8447
  25.800   1.2881   0.33916   0.33855  -0.2220   0.0023   0.8457
  25.900   1.2908   0.34053   0.33992  -0.2231   0.0024   0.8464
  26.000   1.2939   0.34147   0.34087  -0.2241   0.0023   0.8494
  26.100   1.2968   0.34266   0.34206  -0.2252   0.0023   0.8525
  26.200   1.2997   0.34386   0.34326  -0.2264   0.0022   0.8549
  26.300   1.3026   0.34507   0.34448  -0.2275   0.0021   0.8570
  26.400   1.3054   0.34614   0.34555  -0.2285   0.0022   0.8591
  26.500   1.3082   0.34742   0.34683  -0.2297   0.0021   0.8607
  26.600   1.3111   0.34856   0.34798  -0.2308   0.0021   0.8627
  26.700   1.3139   0.34972   0.34915  -0.2319   0.0021   0.8671
  26.800   1.3168   0.35084   0.35028  -0.2330   0.0020   0.8711
  26.900   1.3195   0.35224   0.35169  -0.2342   0.0019   0.8743
  27.000   1.3223   0.35344   0.35289  -0.2354   0.0019   0.8758
  27.100   1.3249   0.35472   0.35417  -0.2365   0.0019   0.8768
  27.200   1.3273   0.35647   0.35594  -0.2379   0.0018   0.8803
  27.300   1.3301   0.35754   0.35702  -0.2390   0.0018   0.8845
  27.400   1.3297   0.36454   0.36403  -0.2427   0.0016   0.8854
  27.500   1.3326   0.36549   0.36498  -0.2437   0.0015   0.8891
  27.600   1.3354   0.36657   0.36607  -0.2448   0.0015   0.8938
  27.700   1.3382   0.36774   0.36727  -0.2460   0.0015   0.9021
  27.800   1.3410   0.36868   0.36822  -0.2471   0.0015   0.9105
  27.900   1.3438   0.36996   0.36954  -0.2483   0.0014   0.9252
  28.000   1.3458   0.37100   0.37072  -0.2491   0.0014   1.0000
  28.100   1.3486   0.37190   0.37162  -0.2502   0.0014   1.0000
  28.200   1.3513   0.37308   0.37280  -0.2513   0.0014   1.0000
  28.300   1.3539   0.37403   0.37375  -0.2524   0.0014   1.0000
  28.400   1.3566   0.37515   0.37487  -0.2535   0.0013   1.0000
  28.500   1.3592   0.37623   0.37595  -0.2546   0.0013   1.0000
  28.600   1.3619   0.37726   0.37698  -0.2557   0.0013   1.0000
  28.700   1.3644   0.37843   0.37815  -0.2569   0.0013   1.0000
  28.800   1.3671   0.37944   0.37916  -0.2580   0.0013   1.0000
  28.900   1.3697   0.38041   0.38013  -0.2591   0.0012   1.0000
  29.000   1.3723   0.38137   0.38108  -0.2602   0.0012   1.0000
  29.100   1.3748   0.38250   0.38222  -0.2613   0.0012   1.0000
  29.200   1.3774   0.38353   0.38325  -0.2624   0.0012   1.0000
  29.300   1.3799   0.38460   0.38432  -0.2635   0.0012   1.0000
  29.400   1.3824   0.38576   0.38548  -0.2647   0.0012   1.0000
  29.500   1.3849   0.38681   0.38653  -0.2659   0.0011   1.0000
  29.600   1.3873   0.38801   0.38773  -0.2671   0.0011   1.0000
  29.700   1.3898   0.38893   0.38865  -0.2681   0.0010   1.0000
  29.800   1.3922   0.39029   0.39001  -0.2694   0.0010   1.0000
  29.900   1.3937   0.39718   0.39691  -0.2727   0.0008   1.0000
  30.000   1.3962   0.39810   0.39783  -0.2738   0.0008   1.0000
