xflr5 v6.61

Plane Name
T1-10.0 m/s-Panel-Inviscid
QInf  =   10.000000 m/s
Alpha =   10.000000
Beta  =    0.000°
Phi   =    0.000°
Ctrl  =    0.000
CL    =    0.901779
Cy    =    0.000000
Cd    =    0.036043     ICd   =    0.036043     PCd   =    0.000000
Cl   = -5.96911e-16
Cm   =    -1.17556
ICn   =   -0.000000     PCn   =   -0.000000 
XCP   =    8.976995     YCP   =    0.000000     ZCP   =    0.301762  
XNP   =    0.000000
Bending = 60990.637318

Main Wing
  y-span        Chord      Ai         Cl        PCd          ICd        CmGeom    CmAirf@chord/4    XTrtop    XTrBot      XCP       BM
  -21.4733     2.4626    -8.199    0.346602    0.000000    0.049941   -2.818364    0.011210     0.0000    0.0000    0.2205    0.0000
  -21.3266     2.5130    -6.208    0.569783    0.000000    0.061973   -4.002198   -0.009773     0.0000    0.0000    0.2616    0.5789
  -21.0342     2.6135    -5.077    0.762933    0.000000    0.067780   -4.802981   -0.007387     0.0000    0.0000    0.2550    7.5259
  -20.5982     2.7633    -4.151    0.903468    0.000000    0.065560   -5.250727   -0.019171     0.0000    0.0000    0.2665   37.8487
  -20.0214     2.9614    -3.414    0.993926    0.000000    0.059278   -5.273757   -0.032217     0.0000    0.0000    0.2777   123.9217
  -19.3079     3.2066    -2.845    1.043720    0.000000    0.051858   -4.975446   -0.042050     0.0000    0.0000    0.2855   315.8181
  -18.4625     3.4970    -2.444    1.064251    0.000000    0.045420   -4.492901   -0.048236     0.0000    0.0000    0.2905   682.2126
  -17.4909     3.8308    -2.196    1.065351    0.000000    0.040838   -3.935723   -0.051790     0.0000    0.0000    0.2937   1310.3348
  -16.3999     4.2056    -2.067    1.053929    0.000000    0.038017   -3.373243   -0.053735     0.0000    0.0000    0.2961   2305.1655
  -15.1969     4.6189    -2.023    1.034347    0.000000    0.036510   -2.843244   -0.054753     0.0000    0.0000    0.2980   3787.7151
  -13.8900     5.0679    -2.036    1.009220    0.000000    0.035859   -2.363173   -0.055252     0.0000    0.0000    0.2998   5892.1212
  -12.4883     5.5495    -2.087    0.980061    0.000000    0.035694   -1.938867   -0.055469     0.0000    0.0000    0.3017   8761.3804
  -11.0012     6.0604    -2.161    0.947700    0.000000    0.035733   -1.569922   -0.055565     0.0000    0.0000    0.3037   12541.6639
   -9.4390     6.5971    -2.246    0.912537    0.000000    0.035754   -1.252847   -0.055682     0.0000    0.0000    0.3061   17375.3102
   -7.8124     7.1560    -2.330    0.874667    0.000000    0.035548   -0.982954   -0.056004     0.0000    0.0000    0.3092   23392.7230
   -6.1323     7.7332    -2.398    0.833974    0.000000    0.034885   -0.755446   -0.056854     0.0000    0.0000    0.3134   30703.5143
   -4.4104     8.3248    -2.427    0.790173    0.000000    0.033428   -0.566133   -0.058876     0.0000    0.0000    0.3200   39387.3546
   -2.6584     8.9267    -2.362    0.742848    0.000000    0.030533   -0.412214   -0.063467     0.0000    0.0000    0.3314   49485.0710
   -0.8881     9.5349    -2.011    0.691020    0.000000    0.023916   -0.293564   -0.075245     0.0000    0.0000    0.3566   60990.6373
    0.8881     9.5349    -2.011    0.691020    0.000000    0.023916   -0.293564   -0.075245     0.0000    0.0000    0.3566   60990.6373
    2.6584     8.9267    -2.362    0.742848    0.000000    0.030533   -0.412214   -0.063467     0.0000    0.0000    0.3314   49485.0710
    4.4104     8.3248    -2.427    0.790173    0.000000    0.033428   -0.566133   -0.058876     0.0000    0.0000    0.3200   39387.3546
    6.1323     7.7332    -2.398    0.833974    0.000000    0.034885   -0.755446   -0.056854     0.0000    0.0000    0.3134   30703.5143
    7.8124     7.1560    -2.330    0.874667    0.000000    0.035548   -0.982954   -0.056004     0.0000    0.0000    0.3092   23392.7230
    9.4390     6.5971    -2.246    0.912537    0.000000    0.035754   -1.252847   -0.055682     0.0000    0.0000    0.3061   17375.3102
   11.0012     6.0604    -2.161    0.947700    0.000000    0.035733   -1.569922   -0.055565     0.0000    0.0000    0.3037   12541.6639
   12.4883     5.5495    -2.087    0.980061    0.000000    0.035694   -1.938867   -0.055469     0.0000    0.0000    0.3017   8761.3804
   13.8900     5.0679    -2.036    1.009220    0.000000    0.035859   -2.363173   -0.055252     0.0000    0.0000    0.2998   5892.1212
   15.1969     4.6189    -2.023    1.034347    0.000000    0.036510   -2.843244   -0.054753     0.0000    0.0000    0.2980   3787.7151
   16.3999     4.2056    -2.067    1.053929    0.000000    0.038017   -3.373243   -0.053735     0.0000    0.0000    0.2961   2305.1655
   17.4909     3.8308    -2.196    1.065351    0.000000    0.040838   -3.935723   -0.051790     0.0000    0.0000    0.2937   1310.3348
   18.4625     3.4970    -2.444    1.064251    0.000000    0.045420   -4.492901   -0.048236     0.0000    0.0000    0.2905   682.2126
   19.3079     3.2066    -2.845    1.043720    0.000000    0.051858   -4.975446   -0.042050     0.0000    0.0000    0.2855   315.8181
   20.0214     2.9614    -3.414    0.993926    0.000000    0.059278   -5.273757   -0.032217     0.0000    0.0000    0.2777   123.9217
   20.5982     2.7633    -4.151    0.903468    0.000000    0.065560   -5.250727   -0.019171     0.0000    0.0000    0.2665   37.8487
   21.0342     2.6135    -5.077    0.762933    0.000000    0.067780   -4.802981   -0.007387     0.0000    0.0000    0.2550    7.5259
   21.3266     2.5130    -6.208    0.569783    0.000000    0.061973   -4.002198   -0.009773     0.0000    0.0000    0.2616    0.5789
   21.4733     2.4626    -8.199    0.346602    0.000000    0.049941   -2.818364    0.011210     0.0000    0.0000    0.2205    0.0000


Main Wing Cp Coefficients
 Panel     CtrlPt.x        CtrlPt.y        CtrlPt.z       Nx      Ny       Nz        Area       Cp
Main WingCp Coefficients
Strip 1
  13       1.784e+01      -2.147e+01       2.632e-01           0.026          -0.003          -1.000       2.630e-03         -1.1864
  14       1.777e+01      -2.147e+01       2.676e-01          -0.091          -0.047          -0.995       7.770e-03         -1.1724
  15       1.763e+01      -2.147e+01       2.696e-01           0.033           0.002          -0.999       1.240e-02         -1.0229
  16       1.744e+01      -2.147e+01       2.508e-01           0.143           0.048          -0.989       1.652e-02         -0.7441
  17       1.719e+01      -2.147e+01       2.101e-01           0.184           0.066          -0.981       1.971e-02         -0.4886
  18       1.692e+01      -2.147e+01       1.626e-01           0.156           0.053          -0.986       2.149e-02         -0.3435
  19       1.662e+01      -2.147e+01       1.289e-01           0.073           0.009          -0.997       2.188e-02         -0.2715
  20       1.633e+01      -2.147e+01       1.166e-01           0.010          -0.027          -1.000       2.118e-02         -0.2201
  21       1.606e+01      -2.147e+01       1.200e-01          -0.036          -0.055          -0.998       1.935e-02         -0.1736
  22       1.581e+01      -2.147e+01       1.341e-01          -0.083          -0.085          -0.993       1.643e-02         -0.1088
  23       1.562e+01      -2.147e+01       1.570e-01          -0.158          -0.134          -0.978       1.265e-02          0.0220
  24       1.548e+01      -2.147e+01       1.895e-01          -0.329          -0.252          -0.910       8.473e-03          0.2301
  25       1.541e+01      -2.147e+01       2.354e-01          -0.715          -0.518          -0.469       5.530e-03         -0.2605
  26       1.541e+01      -2.147e+01       2.892e-01          -0.715          -0.507           0.482       5.529e-03         -2.2592
  27       1.548e+01      -2.147e+01       3.353e-01          -0.331          -0.231           0.915       8.479e-03         -2.4599
  28       1.562e+01      -2.147e+01       3.674e-01          -0.151          -0.106           0.983       1.262e-02         -1.2028
  29       1.581e+01      -2.147e+01       3.895e-01          -0.082          -0.059           0.995       1.642e-02         -0.7611
  30       1.606e+01      -2.147e+01       4.036e-01          -0.037          -0.031           0.999       1.934e-02         -0.6077
  31       1.633e+01      -2.147e+01       4.092e-01          -0.005          -0.011           1.000       2.117e-02         -0.5381
  32       1.662e+01      -2.147e+01       4.056e-01           0.028           0.008           1.000       2.181e-02         -0.5102
  33       1.692e+01      -2.147e+01       3.912e-01           0.071           0.030           0.997       2.123e-02         -0.5100
  34       1.719e+01      -2.147e+01       3.666e-01           0.108           0.048           0.993       1.943e-02         -0.5857
  35       1.744e+01      -2.147e+01       3.373e-01           0.133           0.059           0.989       1.649e-02         -0.7984
  36       1.763e+01      -2.147e+01       3.092e-01           0.153           0.068           0.986       1.255e-02         -1.1066
  37       1.777e+01      -2.147e+01       2.868e-01           0.174           0.076           0.982       7.869e-03         -1.3331
  38       1.784e+01      -2.147e+01       2.706e-01           0.357           0.144           0.923       2.843e-03         -1.1716
Strip 2
  39       1.778e+01      -2.132e+01       2.615e-01           0.026          -0.003          -1.000       8.032e-03         -0.5554
  40       1.771e+01      -2.132e+01       2.659e-01          -0.091          -0.047          -0.995       2.373e-02         -0.4785
  41       1.757e+01      -2.132e+01       2.680e-01           0.033           0.002          -0.999       3.786e-02         -0.3836
  42       1.737e+01      -2.133e+01       2.488e-01           0.143           0.048          -0.989       5.047e-02         -0.2831
  43       1.712e+01      -2.133e+01       2.072e-01           0.184           0.066          -0.981       6.020e-02         -0.2188
  44       1.684e+01      -2.133e+01       1.588e-01           0.156           0.053          -0.986       6.563e-02         -0.2094
  45       1.655e+01      -2.133e+01       1.244e-01           0.073           0.009          -0.997       6.682e-02         -0.1962
  46       1.625e+01      -2.133e+01       1.119e-01           0.010          -0.027          -1.000       6.471e-02         -0.1478
  47       1.597e+01      -2.133e+01       1.153e-01          -0.036          -0.055          -0.998       5.909e-02         -0.0812
  48       1.572e+01      -2.133e+01       1.297e-01          -0.083          -0.085          -0.993       5.018e-02          0.0195
  49       1.552e+01      -2.133e+01       1.530e-01          -0.158          -0.134          -0.978       3.863e-02          0.1965
  50       1.538e+01      -2.133e+01       1.863e-01          -0.329          -0.252          -0.910       2.588e-02          0.3882
  51       1.531e+01      -2.133e+01       2.331e-01          -0.715          -0.518          -0.469       1.689e-02         -0.4847
  52       1.531e+01      -2.132e+01       2.880e-01          -0.715          -0.507           0.481       1.689e-02         -3.0356
  53       1.538e+01      -2.132e+01       3.350e-01          -0.331          -0.231           0.915       2.590e-02         -3.1258
  54       1.552e+01      -2.132e+01       3.677e-01          -0.151          -0.106           0.983       3.855e-02         -1.5309
  55       1.572e+01      -2.132e+01       3.903e-01          -0.082          -0.059           0.995       5.014e-02         -0.9071
  56       1.597e+01      -2.132e+01       4.047e-01          -0.037          -0.031           0.999       5.906e-02         -0.6577
  57       1.625e+01      -2.132e+01       4.104e-01          -0.005          -0.011           1.000       6.467e-02         -0.5465
  58       1.655e+01      -2.132e+01       4.068e-01           0.028           0.008           1.000       6.662e-02         -0.5015
  59       1.684e+01      -2.132e+01       3.920e-01           0.071           0.030           0.997       6.483e-02         -0.4793
  60       1.712e+01      -2.132e+01       3.669e-01           0.108           0.048           0.993       5.935e-02         -0.4858
  61       1.737e+01      -2.132e+01       3.370e-01           0.133           0.059           0.989       5.036e-02         -0.5510
  62       1.757e+01      -2.132e+01       3.084e-01           0.153           0.068           0.986       3.835e-02         -0.6423
  63       1.771e+01      -2.132e+01       2.855e-01           0.174           0.076           0.982       2.404e-02         -0.7080
  64       1.778e+01      -2.132e+01       2.690e-01           0.357           0.144           0.923       8.684e-03         -0.5086
Strip 3
  65       1.767e+01      -2.103e+01       2.579e-01           0.026          -0.003          -1.000       1.386e-02         -0.0591
  66       1.760e+01      -2.103e+01       2.626e-01          -0.091          -0.047          -0.995       4.095e-02          0.0591
  67       1.745e+01      -2.103e+01       2.647e-01           0.033           0.002          -0.999       6.533e-02          0.1047
  68       1.725e+01      -2.103e+01       2.447e-01           0.143           0.048          -0.989       8.707e-02          0.0691
  69       1.699e+01      -2.103e+01       2.015e-01           0.184           0.066          -0.981       1.039e-01         -0.0028
  70       1.670e+01      -2.103e+01       1.512e-01           0.156           0.053          -0.986       1.132e-01         -0.0777
  71       1.639e+01      -2.103e+01       1.154e-01           0.073           0.009          -0.997       1.153e-01         -0.0933
  72       1.608e+01      -2.103e+01       1.024e-01           0.010          -0.027          -1.000       1.116e-01         -0.0355
  73       1.578e+01      -2.103e+01       1.059e-01          -0.036          -0.055          -0.998       1.020e-01          0.0631
  74       1.553e+01      -2.103e+01       1.209e-01          -0.083          -0.085          -0.993       8.659e-02          0.2078
  75       1.532e+01      -2.103e+01       1.452e-01          -0.158          -0.134          -0.978       6.665e-02          0.4113
  76       1.517e+01      -2.103e+01       1.797e-01          -0.329          -0.252          -0.910       4.466e-02          0.5419
  77       1.510e+01      -2.103e+01       2.284e-01          -0.715          -0.518          -0.469       2.915e-02         -0.6345
  78       1.510e+01      -2.103e+01       2.855e-01          -0.715          -0.507           0.481       2.913e-02         -3.5968
  79       1.517e+01      -2.103e+01       3.344e-01          -0.331          -0.231           0.915       4.468e-02         -3.6186
  80       1.532e+01      -2.103e+01       3.684e-01          -0.151          -0.106           0.983       6.650e-02         -1.8218
  81       1.553e+01      -2.103e+01       3.919e-01          -0.082          -0.059           0.995       8.651e-02         -1.0930
  82       1.578e+01      -2.103e+01       4.069e-01          -0.037          -0.031           0.999       1.019e-01         -0.7580
  83       1.608e+01      -2.103e+01       4.128e-01          -0.005          -0.011           1.000       1.116e-01         -0.5795
  84       1.639e+01      -2.103e+01       4.091e-01           0.028           0.008           1.000       1.149e-01         -0.4827
  85       1.670e+01      -2.103e+01       3.937e-01           0.071           0.030           0.997       1.119e-01         -0.3987
  86       1.699e+01      -2.103e+01       3.676e-01           0.108           0.048           0.993       1.024e-01         -0.3062
  87       1.725e+01      -2.103e+01       3.365e-01           0.133           0.059           0.989       8.689e-02         -0.2343
  88       1.745e+01      -2.103e+01       3.068e-01           0.153           0.068           0.986       6.617e-02         -0.1841
  89       1.760e+01      -2.103e+01       2.830e-01           0.174           0.076           0.982       4.147e-02         -0.1666
  90       1.767e+01      -2.103e+01       2.657e-01           0.357           0.144           0.923       1.499e-02          0.0215
Strip 4
  91       1.751e+01      -2.060e+01       2.527e-01           0.026          -0.003          -1.000       2.037e-02          0.0448
  92       1.743e+01      -2.060e+01       2.575e-01          -0.091          -0.047          -0.995       6.020e-02          0.1805
  93       1.728e+01      -2.060e+01       2.598e-01           0.033           0.002          -0.999       9.604e-02          0.2324
  94       1.706e+01      -2.060e+01       2.387e-01           0.143           0.048          -0.989       1.280e-01          0.1851
  95       1.679e+01      -2.060e+01       1.930e-01           0.184           0.066          -0.981       1.527e-01          0.0941
  96       1.648e+01      -2.060e+01       1.398e-01           0.156           0.053          -0.986       1.665e-01          0.0035
  97       1.615e+01      -2.060e+01       1.019e-01           0.073           0.009          -0.997       1.695e-01         -0.0136
  98       1.582e+01      -2.060e+01       8.816e-02           0.010          -0.027          -1.000       1.641e-01          0.0561
  99       1.551e+01      -2.060e+01       9.196e-02          -0.036          -0.055          -0.998       1.499e-01          0.1693
 100       1.524e+01      -2.060e+01       1.078e-01          -0.083          -0.085          -0.993       1.273e-01          0.3174
 101       1.502e+01      -2.060e+01       1.334e-01          -0.158          -0.134          -0.978       9.799e-02          0.5034
 102       1.487e+01      -2.060e+01       1.700e-01          -0.329          -0.252          -0.910       6.567e-02          0.5676
 103       1.479e+01      -2.060e+01       2.215e-01          -0.715          -0.518          -0.470       4.286e-02         -0.8039
 104       1.479e+01      -2.060e+01       2.818e-01          -0.715          -0.507           0.481       4.282e-02         -3.9689
 105       1.487e+01      -2.060e+01       3.335e-01          -0.331          -0.232           0.915       6.567e-02         -3.9237
 106       1.502e+01      -2.060e+01       3.695e-01          -0.151          -0.106           0.983       9.776e-02         -1.9990
 107       1.524e+01      -2.060e+01       3.943e-01          -0.082          -0.059           0.995       1.272e-01         -1.2266
 108       1.551e+01      -2.059e+01       4.101e-01          -0.037          -0.031           0.999       1.498e-01         -0.8651
 109       1.582e+01      -2.059e+01       4.164e-01          -0.005          -0.011           1.000       1.640e-01         -0.6549
 110       1.615e+01      -2.059e+01       4.124e-01           0.028           0.008           1.000       1.690e-01         -0.5230
 111       1.648e+01      -2.060e+01       3.962e-01           0.071           0.030           0.997       1.645e-01         -0.4051
 112       1.679e+01      -2.060e+01       3.686e-01           0.108           0.048           0.993       1.506e-01         -0.2813
 113       1.706e+01      -2.060e+01       3.358e-01           0.133           0.059           0.989       1.277e-01         -0.1797
 114       1.728e+01      -2.060e+01       3.043e-01           0.153           0.068           0.986       9.728e-02         -0.1026
 115       1.743e+01      -2.060e+01       2.791e-01           0.174           0.076           0.982       6.098e-02         -0.0661
 116       1.751e+01      -2.060e+01       2.609e-01           0.357           0.144           0.923       2.203e-02          0.1159
Strip 5
 117       1.729e+01      -2.002e+01       2.457e-01           0.026          -0.003          -1.000       2.782e-02          0.0792
 118       1.721e+01      -2.002e+01       2.509e-01          -0.091          -0.047          -0.995       8.220e-02          0.2244
 119       1.704e+01      -2.002e+01       2.534e-01           0.033           0.002          -0.999       1.311e-01          0.2830
 120       1.681e+01      -2.002e+01       2.307e-01           0.143           0.048          -0.989       1.748e-01          0.2366
 121       1.652e+01      -2.002e+01       1.818e-01           0.184           0.066          -0.981       2.084e-01          0.1441
 122       1.619e+01      -2.002e+01       1.247e-01           0.156           0.053          -0.986       2.273e-01          0.0538
 123       1.583e+01      -2.002e+01       8.413e-02           0.073           0.009          -0.997       2.314e-01          0.0407
 124       1.548e+01      -2.002e+01       6.939e-02           0.010          -0.027          -1.000       2.241e-01          0.1146
 125       1.515e+01      -2.002e+01       7.346e-02          -0.036          -0.055          -0.998       2.047e-01          0.2271
 126       1.486e+01      -2.002e+01       9.040e-02          -0.083          -0.085          -0.993       1.738e-01          0.3683
 127       1.462e+01      -2.002e+01       1.179e-01          -0.158          -0.134          -0.978       1.338e-01          0.5414
 128       1.446e+01      -2.002e+01       1.571e-01          -0.329          -0.252          -0.910       8.968e-02          0.5690
 129       1.437e+01      -2.002e+01       2.122e-01          -0.715          -0.518          -0.470       5.853e-02         -0.9076
 130       1.437e+01      -2.002e+01       2.770e-01          -0.716          -0.507           0.480       5.845e-02         -4.1791
 131       1.446e+01      -2.002e+01       3.323e-01          -0.331          -0.232           0.915       8.964e-02         -4.0933
 132       1.462e+01      -2.002e+01       3.709e-01          -0.151          -0.106           0.983       1.335e-01         -2.0972
 133       1.486e+01      -2.002e+01       3.975e-01          -0.082          -0.059           0.995       1.736e-01         -1.3040
 134       1.515e+01      -2.002e+01       4.145e-01          -0.037          -0.031           0.999       2.045e-01         -0.9350
 135       1.548e+01      -2.002e+01       4.212e-01          -0.005          -0.011           1.000       2.240e-01         -0.7170
 136       1.583e+01      -2.002e+01       4.169e-01           0.028           0.008           1.000       2.307e-01         -0.5730
 137       1.619e+01      -2.002e+01       3.995e-01           0.071           0.030           0.997       2.245e-01         -0.4393
 138       1.652e+01      -2.002e+01       3.700e-01           0.108           0.048           0.993       2.056e-01         -0.2989
 139       1.681e+01      -2.002e+01       3.347e-01           0.133           0.059           0.989       1.744e-01         -0.1809
 140       1.704e+01      -2.002e+01       3.010e-01           0.153           0.068           0.986       1.328e-01         -0.0900
 141       1.721e+01      -2.002e+01       2.741e-01           0.174           0.076           0.982       8.326e-02         -0.0428
 142       1.729e+01      -2.002e+01       2.545e-01           0.357           0.144           0.923       3.008e-02          0.1379
Strip 6
 143       1.702e+01      -1.931e+01       2.371e-01           0.026          -0.003          -1.000       3.639e-02          0.0937
 144       1.693e+01      -1.931e+01       2.427e-01          -0.091          -0.047          -0.995       1.075e-01          0.2447
 145       1.675e+01      -1.931e+01       2.454e-01           0.033           0.002          -0.999       1.715e-01          0.3082
 146       1.650e+01      -1.931e+01       2.208e-01           0.143           0.048          -0.989       2.286e-01          0.2641
 147       1.618e+01      -1.931e+01       1.679e-01           0.184           0.066          -0.981       2.727e-01          0.1731
 148       1.583e+01      -1.931e+01       1.061e-01           0.156           0.053          -0.986       2.973e-01          0.0847
 149       1.544e+01      -1.931e+01       6.213e-02           0.073           0.009          -0.997       3.027e-01          0.0731
 150       1.506e+01      -1.931e+01       4.617e-02           0.010          -0.027          -1.000       2.932e-01          0.1463
 151       1.470e+01      -1.931e+01       5.057e-02          -0.036          -0.055          -0.998       2.677e-01          0.2555
 152       1.439e+01      -1.931e+01       6.891e-02          -0.083          -0.085          -0.993       2.274e-01          0.3915
 153       1.413e+01      -1.931e+01       9.871e-02          -0.158          -0.134          -0.978       1.751e-01          0.5578
 154       1.396e+01      -1.931e+01       1.411e-01          -0.329          -0.252          -0.910       1.173e-01          0.5706
 155       1.386e+01      -1.931e+01       2.008e-01          -0.714          -0.518          -0.471       7.659e-02         -0.9443
 156       1.386e+01      -1.931e+01       2.709e-01          -0.716          -0.507           0.480       7.645e-02         -4.2581
 157       1.396e+01      -1.931e+01       3.308e-01          -0.331          -0.232           0.915       1.172e-01         -4.1601
 158       1.413e+01      -1.931e+01       3.726e-01          -0.151          -0.106           0.983       1.746e-01         -2.1392
 159       1.439e+01      -1.931e+01       4.015e-01          -0.082          -0.059           0.995       2.271e-01         -1.3400
 160       1.470e+01      -1.930e+01       4.198e-01          -0.037          -0.031           0.999       2.675e-01         -0.9704
 161       1.506e+01      -1.930e+01       4.271e-01          -0.005          -0.011           1.000       2.930e-01         -0.7521
 162       1.544e+01      -1.930e+01       4.225e-01           0.028           0.008           1.000       3.018e-01         -0.6057
 163       1.583e+01      -1.931e+01       4.036e-01           0.071           0.030           0.997       2.938e-01         -0.4664
 164       1.618e+01      -1.931e+01       3.716e-01           0.108           0.048           0.993       2.690e-01         -0.3179
 165       1.650e+01      -1.931e+01       3.335e-01           0.133           0.059           0.989       2.282e-01         -0.1910
 166       1.675e+01      -1.931e+01       2.970e-01           0.153           0.068           0.986       1.738e-01         -0.0922
 167       1.693e+01      -1.931e+01       2.678e-01           0.174           0.076           0.982       1.089e-01         -0.0384
 168       1.702e+01      -1.931e+01       2.466e-01           0.357           0.144           0.923       3.936e-02          0.1423
Strip 7
 169       1.671e+01      -1.846e+01       2.268e-01           0.026          -0.003          -1.000       4.625e-02          0.1009
 170       1.661e+01      -1.846e+01       2.330e-01          -0.091          -0.047          -0.995       1.367e-01          0.2553
 171       1.641e+01      -1.846e+01       2.359e-01           0.033           0.002          -0.999       2.180e-01          0.3219
 172       1.613e+01      -1.846e+01       2.091e-01           0.143           0.048          -0.989       2.906e-01          0.2795
 173       1.579e+01      -1.846e+01       1.514e-01           0.184           0.066          -0.981       3.465e-01          0.1894
 174       1.540e+01      -1.846e+01       8.396e-02           0.156           0.053          -0.986       3.778e-01          0.1014
 175       1.498e+01      -1.846e+01       3.606e-02           0.073           0.009          -0.997       3.848e-01          0.0895
 176       1.457e+01      -1.846e+01       1.865e-02           0.010          -0.027          -1.000       3.726e-01          0.1611
 177       1.418e+01      -1.846e+01       2.346e-02          -0.036          -0.055          -0.998       3.403e-01          0.2676
 178       1.383e+01      -1.846e+01       4.346e-02          -0.083          -0.085          -0.993       2.891e-01          0.4002
 179       1.356e+01      -1.846e+01       7.595e-02          -0.158          -0.134          -0.978       2.225e-01          0.5635
 180       1.336e+01      -1.846e+01       1.222e-01          -0.329          -0.252          -0.910       1.492e-01          0.5767
 181       1.326e+01      -1.846e+01       1.873e-01          -0.714          -0.518          -0.471       9.738e-02         -0.9276
 182       1.326e+01      -1.846e+01       2.638e-01          -0.716          -0.507           0.480       9.714e-02         -4.2377
 183       1.336e+01      -1.846e+01       3.291e-01          -0.331          -0.232           0.915       1.490e-01         -4.1513
 184       1.356e+01      -1.846e+01       3.747e-01          -0.151          -0.106           0.983       2.219e-01         -2.1420
 185       1.383e+01      -1.846e+01       4.062e-01          -0.082          -0.059           0.995       2.887e-01         -1.3484
 186       1.418e+01      -1.846e+01       4.261e-01          -0.037          -0.031           0.999       3.401e-01         -0.9823
 187       1.457e+01      -1.846e+01       4.341e-01          -0.005          -0.011           1.000       3.724e-01         -0.7665
 188       1.498e+01      -1.846e+01       4.291e-01           0.028           0.008           1.000       3.837e-01         -0.6210
 189       1.540e+01      -1.846e+01       4.085e-01           0.071           0.030           0.997       3.734e-01         -0.4807
 190       1.579e+01      -1.846e+01       3.736e-01           0.108           0.048           0.993       3.419e-01         -0.3292
 191       1.613e+01      -1.846e+01       3.320e-01           0.133           0.059           0.989       2.901e-01         -0.1982
 192       1.641e+01      -1.846e+01       2.922e-01           0.153           0.068           0.986       2.209e-01         -0.0955
 193       1.661e+01      -1.846e+01       2.603e-01           0.174           0.076           0.982       1.385e-01         -0.0380
 194       1.671e+01      -1.846e+01       2.373e-01           0.357           0.144           0.923       5.004e-02          0.1429
Strip 8
 195       1.634e+01      -1.749e+01       2.151e-01           0.026          -0.003          -1.000       5.751e-02          0.1047
 196       1.623e+01      -1.749e+01       2.219e-01          -0.091          -0.047          -0.995       1.700e-01          0.2612
 197       1.602e+01      -1.749e+01       2.250e-01           0.033           0.002          -0.999       2.711e-01          0.3294
 198       1.572e+01      -1.749e+01       1.957e-01           0.143           0.048          -0.989       3.613e-01          0.2878
 199       1.534e+01      -1.749e+01       1.324e-01           0.184           0.066          -0.981       4.309e-01          0.1978
 200       1.491e+01      -1.749e+01       5.858e-02           0.156           0.053          -0.986       4.698e-01          0.1091
 201       1.445e+01      -1.749e+01       6.104e-03           0.073           0.009          -0.997       4.784e-01          0.0959
 202       1.400e+01      -1.749e+01      -1.297e-02           0.010          -0.027          -1.000       4.634e-01          0.1657
 203       1.357e+01      -1.749e+01      -7.704e-03          -0.036          -0.055          -0.998       4.232e-01          0.2701
 204       1.319e+01      -1.749e+01       1.420e-02          -0.083          -0.085          -0.993       3.595e-01          0.4004
 205       1.289e+01      -1.749e+01       4.980e-02          -0.158          -0.134          -0.978       2.768e-01          0.5628
 206       1.268e+01      -1.749e+01       1.004e-01          -0.329          -0.252          -0.910       1.856e-01          0.5868
 207       1.257e+01      -1.749e+01       1.718e-01          -0.714          -0.518          -0.471       1.211e-01         -0.8724
 208       1.257e+01      -1.749e+01       2.555e-01          -0.716          -0.508           0.479       1.208e-01         -4.1465
 209       1.268e+01      -1.749e+01       3.271e-01          -0.332          -0.232           0.915       1.852e-01         -4.0889
 210       1.289e+01      -1.749e+01       3.771e-01          -0.151          -0.106           0.983       2.759e-01         -2.1179
 211       1.319e+01      -1.749e+01       4.115e-01          -0.082          -0.059           0.995       3.590e-01         -1.3383
 212       1.357e+01      -1.749e+01       4.334e-01          -0.037          -0.031           0.999       4.229e-01         -0.9791
 213       1.400e+01      -1.749e+01       4.421e-01          -0.005          -0.011           1.000       4.631e-01         -0.7674
 214       1.445e+01      -1.749e+01       4.366e-01           0.028           0.008           1.000       4.771e-01         -0.6244
 215       1.491e+01      -1.749e+01       4.141e-01           0.071           0.030           0.997       4.644e-01         -0.4852
 216       1.534e+01      -1.749e+01       3.758e-01           0.108           0.048           0.993       4.252e-01         -0.3333
 217       1.572e+01      -1.749e+01       3.303e-01           0.133           0.059           0.989       3.607e-01         -0.2011
 218       1.602e+01      -1.749e+01       2.867e-01           0.153           0.068           0.986       2.747e-01         -0.0968
 219       1.623e+01      -1.749e+01       2.518e-01           0.174           0.076           0.982       1.722e-01         -0.0377
 220       1.634e+01      -1.749e+01       2.265e-01           0.357           0.144           0.923       6.223e-02          0.1429
Strip 9
 221       1.593e+01      -1.640e+01       2.019e-01           0.026          -0.003          -1.000       7.023e-02          0.1068
 222       1.581e+01      -1.640e+01       2.093e-01          -0.091          -0.047          -0.995       2.076e-01          0.2644
 223       1.558e+01      -1.640e+01       2.128e-01           0.033           0.002          -0.999       3.311e-01          0.3336
 224       1.524e+01      -1.640e+01       1.806e-01           0.143           0.048          -0.989       4.411e-01          0.2920
 225       1.483e+01      -1.640e+01       1.111e-01           0.184           0.066          -0.981       5.261e-01          0.2014
 226       1.436e+01      -1.640e+01       3.007e-02           0.156           0.053          -0.986       5.736e-01          0.1112
 227       1.386e+01      -1.640e+01      -2.754e-02           0.073           0.009          -0.997       5.842e-01          0.0962
 228       1.336e+01      -1.640e+01      -4.848e-02           0.010          -0.027          -1.000       5.658e-01          0.1643
 229       1.289e+01      -1.640e+01      -4.270e-02          -0.036          -0.055          -0.998       5.168e-01          0.2667
 230       1.248e+01      -1.640e+01      -1.865e-02          -0.083          -0.085          -0.993       4.390e-01          0.3952
 231       1.214e+01      -1.640e+01       2.044e-02          -0.158          -0.134          -0.978       3.380e-01          0.5579
 232       1.191e+01      -1.640e+01       7.603e-02          -0.329          -0.252          -0.910       2.266e-01          0.5993
 233       1.179e+01      -1.640e+01       1.544e-01          -0.714          -0.518          -0.472       1.479e-01         -0.7912
 234       1.179e+01      -1.640e+01       2.463e-01          -0.716          -0.508           0.479       1.474e-01         -4.0061
 235       1.191e+01      -1.640e+01       3.249e-01          -0.332          -0.232           0.915       2.261e-01         -3.9893
 236       1.214e+01      -1.640e+01       3.797e-01          -0.151          -0.106           0.983       3.368e-01         -2.0755
 237       1.248e+01      -1.640e+01       4.176e-01          -0.082          -0.059           0.995       4.383e-01         -1.3161
 238       1.289e+01      -1.640e+01       4.416e-01          -0.037          -0.031           0.999       5.163e-01         -0.9661
 239       1.336e+01      -1.640e+01       4.511e-01          -0.005          -0.011           1.000       5.655e-01         -0.7599
 240       1.386e+01      -1.640e+01       4.451e-01           0.028           0.008           1.000       5.826e-01         -0.6204
 241       1.436e+01      -1.640e+01       4.204e-01           0.071           0.030           0.997       5.670e-01         -0.4833
 242       1.483e+01      -1.640e+01       3.784e-01           0.108           0.048           0.993       5.192e-01         -0.3326
 243       1.524e+01      -1.640e+01       3.284e-01           0.133           0.059           0.989       4.405e-01         -0.2006
 244       1.558e+01      -1.640e+01       2.805e-01           0.153           0.068           0.986       3.355e-01         -0.0964
 245       1.581e+01      -1.640e+01       2.422e-01           0.174           0.076           0.982       2.103e-01         -0.0369
 246       1.593e+01      -1.640e+01       2.145e-01           0.357           0.144           0.923       7.600e-02          0.1430
Strip 10
 247       1.548e+01      -1.520e+01       1.873e-01           0.026          -0.003          -1.000       8.439e-02          0.1079
 248       1.535e+01      -1.520e+01       1.955e-01          -0.091          -0.047          -0.995       2.494e-01          0.2663
 249       1.509e+01      -1.520e+01       1.993e-01           0.033           0.002          -0.999       3.978e-01          0.3358
 250       1.472e+01      -1.520e+01       1.640e-01           0.143           0.048          -0.989       5.300e-01          0.2940
 251       1.427e+01      -1.520e+01       8.767e-02           0.184           0.066          -0.981       6.321e-01          0.2022
 252       1.375e+01      -1.520e+01      -1.365e-03           0.156           0.053          -0.986       6.892e-01          0.1100
 253       1.320e+01      -1.520e+01      -6.464e-02           0.073           0.009          -0.997       7.019e-01          0.0928
 254       1.266e+01      -1.520e+01      -8.764e-02           0.010          -0.027          -1.000       6.799e-01          0.1589
 255       1.214e+01      -1.520e+01      -8.129e-02          -0.036          -0.055          -0.998       6.210e-01          0.2595
 256       1.168e+01      -1.520e+01      -5.487e-02          -0.083          -0.085          -0.993       5.275e-01          0.3865
 257       1.132e+01      -1.520e+01      -1.195e-02          -0.158          -0.134          -0.978       4.062e-01          0.5497
 258       1.106e+01      -1.520e+01       4.911e-02          -0.329          -0.252          -0.910       2.724e-01          0.6126
 259       1.093e+01      -1.520e+01       1.352e-01          -0.714          -0.517          -0.472       1.778e-01         -0.6935
 260       1.093e+01      -1.520e+01       2.361e-01          -0.716          -0.508           0.479       1.771e-01         -3.8322
 261       1.106e+01      -1.520e+01       3.224e-01          -0.332          -0.232           0.914       2.717e-01         -3.8641
 262       1.132e+01      -1.519e+01       3.827e-01          -0.151          -0.106           0.983       4.047e-01         -2.0207
 263       1.168e+01      -1.519e+01       4.242e-01          -0.082          -0.059           0.995       5.266e-01         -1.2856
 264       1.214e+01      -1.519e+01       4.506e-01          -0.037          -0.031           0.999       6.204e-01         -0.9467
 265       1.266e+01      -1.519e+01       4.611e-01          -0.005          -0.011           1.000       6.795e-01         -0.7469
 266       1.320e+01      -1.519e+01       4.545e-01           0.028           0.008           1.000       7.000e-01         -0.6116
 267       1.375e+01      -1.519e+01       4.273e-01           0.071           0.030           0.997       6.814e-01         -0.4775
 268       1.427e+01      -1.519e+01       3.812e-01           0.108           0.048           0.993       6.239e-01         -0.3288
 269       1.472e+01      -1.520e+01       3.263e-01           0.133           0.059           0.989       5.293e-01         -0.1981
 270       1.509e+01      -1.520e+01       2.736e-01           0.153           0.068           0.986       4.031e-01         -0.0947
 271       1.535e+01      -1.520e+01       2.316e-01           0.174           0.076           0.982       2.527e-01         -0.0357
 272       1.548e+01      -1.520e+01       2.012e-01           0.357           0.144           0.923       9.133e-02          0.1432
Strip 11
 273       1.499e+01      -1.389e+01       1.715e-01           0.026          -0.003          -1.000       9.992e-02          0.1085
 274       1.484e+01      -1.389e+01       1.805e-01          -0.091          -0.047          -0.995       2.954e-01          0.2673
 275       1.456e+01      -1.389e+01       1.847e-01           0.033           0.002          -0.999       4.710e-01          0.3370
 276       1.416e+01      -1.389e+01       1.459e-01           0.143           0.048          -0.989       6.276e-01          0.2947
 277       1.366e+01      -1.389e+01       6.218e-02           0.184           0.066          -0.981       7.484e-01          0.2014
 278       1.309e+01      -1.389e+01      -3.551e-02           0.156           0.053          -0.986       8.161e-01          0.1067
 279       1.249e+01      -1.389e+01      -1.049e-01           0.073           0.009          -0.997       8.311e-01          0.0869
 280       1.189e+01      -1.389e+01      -1.302e-01           0.010          -0.027          -1.000       8.050e-01          0.1510
 281       1.132e+01      -1.389e+01      -1.232e-01          -0.036          -0.055          -0.998       7.353e-01          0.2498
 282       1.082e+01      -1.389e+01      -9.422e-02          -0.083          -0.085          -0.993       6.246e-01          0.3750
 283       1.042e+01      -1.389e+01      -4.712e-02          -0.157          -0.134          -0.978       4.810e-01          0.5390
 284       1.014e+01      -1.389e+01       1.987e-02          -0.329          -0.252          -0.910       3.225e-01          0.6252
 285       9.994e+00      -1.389e+01       1.143e-01          -0.714          -0.517          -0.472       2.106e-01         -0.5854
 286       9.994e+00      -1.389e+01       2.251e-01          -0.716          -0.508           0.478       2.097e-01         -3.6352
 287       1.014e+01      -1.389e+01       3.198e-01          -0.332          -0.232           0.914       3.216e-01         -3.7205
 288       1.042e+01      -1.389e+01       3.859e-01          -0.151          -0.106           0.983       4.792e-01         -1.9568
 289       1.082e+01      -1.389e+01       4.314e-01          -0.082          -0.059           0.995       6.235e-01         -1.2494
 290       1.132e+01      -1.389e+01       4.604e-01          -0.037          -0.031           0.999       7.346e-01         -0.9230
 291       1.189e+01      -1.389e+01       4.719e-01          -0.005          -0.011           1.000       8.046e-01         -0.7304
 292       1.249e+01      -1.389e+01       4.646e-01           0.028           0.008           1.000       8.289e-01         -0.5997
 293       1.309e+01      -1.389e+01       4.348e-01           0.071           0.030           0.997       8.068e-01         -0.4692
 294       1.366e+01      -1.389e+01       3.842e-01           0.108           0.048           0.993       7.387e-01         -0.3231
 295       1.416e+01      -1.389e+01       3.240e-01           0.133           0.059           0.989       6.268e-01         -0.1942
 296       1.456e+01      -1.389e+01       2.662e-01           0.153           0.068           0.986       4.773e-01         -0.0922
 297       1.484e+01      -1.389e+01       2.201e-01           0.174           0.076           0.982       2.992e-01         -0.0342
 298       1.499e+01      -1.389e+01       1.867e-01           0.357           0.144           0.923       1.082e-01          0.1434
Strip 12
 299       1.446e+01      -1.249e+01       1.546e-01           0.026          -0.003          -1.000       1.167e-01          0.1087
 300       1.430e+01      -1.249e+01       1.644e-01          -0.091          -0.047          -0.995       3.449e-01          0.2679
 301       1.399e+01      -1.249e+01       1.690e-01           0.033           0.002          -0.999       5.501e-01          0.3376
 302       1.355e+01      -1.249e+01       1.265e-01           0.143           0.048          -0.989       7.329e-01          0.2946
 303       1.301e+01      -1.249e+01       3.484e-02           0.184           0.066          -0.981       8.740e-01          0.1995
 304       1.239e+01      -1.249e+01      -7.214e-02           0.156           0.053          -0.986       9.530e-01          0.1020
 305       1.173e+01      -1.249e+01      -1.482e-01           0.073           0.009          -0.997       9.706e-01          0.0793
 306       1.107e+01      -1.249e+01      -1.758e-01           0.010          -0.027          -1.000       9.401e-01          0.1413
 307       1.045e+01      -1.249e+01      -1.682e-01          -0.036          -0.055          -0.998       8.588e-01          0.2380
 308       9.901e+00      -1.249e+01      -1.364e-01          -0.083          -0.085          -0.993       7.295e-01          0.3613
 309       9.460e+00      -1.249e+01      -8.485e-02          -0.157          -0.134          -0.978       5.618e-01          0.5259
 310       9.152e+00      -1.249e+01      -1.150e-02          -0.329          -0.252          -0.910       3.767e-01          0.6363
 311       8.993e+00      -1.249e+01       9.193e-02          -0.713          -0.517          -0.473       2.460e-01         -0.4711
 312       8.993e+00      -1.249e+01       2.132e-01          -0.717          -0.508           0.478       2.449e-01         -3.4212
 313       9.152e+00      -1.249e+01       3.169e-01          -0.332          -0.232           0.914       3.756e-01         -3.5627
 314       9.460e+00      -1.249e+01       3.893e-01          -0.152          -0.106           0.983       5.596e-01         -1.8859
 315       9.901e+00      -1.249e+01       4.392e-01          -0.082          -0.059           0.995       7.282e-01         -1.2089
 316       1.045e+01      -1.249e+01       4.709e-01          -0.037          -0.031           0.999       8.579e-01         -0.8961
 317       1.107e+01      -1.249e+01       4.835e-01          -0.005          -0.011           1.000       9.396e-01         -0.7113
 318       1.173e+01      -1.249e+01       4.755e-01           0.028           0.008           1.000       9.681e-01         -0.5858
 319       1.239e+01      -1.249e+01       4.429e-01           0.071           0.030           0.997       9.423e-01         -0.4591
 320       1.301e+01      -1.249e+01       3.875e-01           0.108           0.048           0.993       8.628e-01         -0.3162
 321       1.355e+01      -1.249e+01       3.215e-01           0.133           0.059           0.989       7.321e-01         -0.1895
 322       1.399e+01      -1.249e+01       2.583e-01           0.153           0.068           0.986       5.575e-01         -0.0892
 323       1.430e+01      -1.249e+01       2.078e-01           0.174           0.076           0.982       3.494e-01         -0.0325
 324       1.446e+01      -1.249e+01       1.712e-01           0.357           0.144           0.923       1.263e-01          0.1437
Strip 13
 325       1.390e+01      -1.100e+01       1.366e-01           0.026          -0.003          -1.000       1.345e-01          0.1085
 326       1.373e+01      -1.100e+01       1.473e-01          -0.091          -0.047          -0.995       3.976e-01          0.2682
 327       1.339e+01      -1.100e+01       1.523e-01           0.033           0.002          -0.999       6.341e-01          0.3378
 328       1.291e+01      -1.100e+01       1.060e-01           0.143           0.048          -0.989       8.448e-01          0.2940
 329       1.231e+01      -1.100e+01       5.834e-03           0.184           0.066          -0.981       1.007e+00          0.1969
 330       1.164e+01      -1.100e+01      -1.110e-01           0.156           0.053          -0.986       1.098e+00          0.0962
 331       1.092e+01      -1.100e+01      -1.940e-01           0.073           0.009          -0.997       1.119e+00          0.0704
 332       1.020e+01      -1.100e+01      -2.242e-01           0.010          -0.027          -1.000       1.084e+00          0.1300
 333       9.519e+00      -1.100e+01      -2.159e-01          -0.036          -0.055          -0.998       9.899e-01          0.2245
 334       8.922e+00      -1.100e+01      -1.812e-01          -0.083          -0.085          -0.993       8.409e-01          0.3458
 335       8.441e+00      -1.100e+01      -1.249e-01          -0.157          -0.134          -0.978       6.476e-01          0.5104
 336       8.104e+00      -1.100e+01      -4.477e-02          -0.329          -0.252          -0.910       4.343e-01          0.6451
 337       7.931e+00      -1.100e+01       6.818e-02          -0.713          -0.517          -0.473       2.836e-01         -0.3529
 338       7.931e+00      -1.100e+01       2.006e-01          -0.717          -0.508           0.478       2.822e-01         -3.1934
 339       8.104e+00      -1.100e+01       3.139e-01          -0.332          -0.232           0.914       4.329e-01         -3.3930
 340       8.441e+00      -1.100e+01       3.929e-01          -0.152          -0.106           0.983       6.450e-01         -1.8092
 341       8.922e+00      -1.100e+01       4.474e-01          -0.082          -0.059           0.995       8.394e-01         -1.1648
 342       9.519e+00      -1.100e+01       4.820e-01          -0.037          -0.031           0.999       9.889e-01         -0.8667
 343       1.020e+01      -1.100e+01       4.958e-01          -0.005          -0.011           1.000       1.083e+00         -0.6903
 344       1.092e+01      -1.100e+01       4.871e-01           0.028           0.008           1.000       1.116e+00         -0.5704
 345       1.164e+01      -1.100e+01       4.515e-01           0.071           0.030           0.997       1.086e+00         -0.4480
 346       1.231e+01      -1.100e+01       3.909e-01           0.108           0.048           0.993       9.946e-01         -0.3085
 347       1.291e+01      -1.100e+01       3.189e-01           0.133           0.059           0.989       8.439e-01         -0.1843
 348       1.339e+01      -1.100e+01       2.499e-01           0.153           0.068           0.986       6.426e-01         -0.0859
 349       1.373e+01      -1.100e+01       1.947e-01           0.174           0.076           0.982       4.028e-01         -0.0308
 350       1.390e+01      -1.100e+01       1.547e-01           0.357           0.144           0.923       1.456e-01          0.1438
Strip 14
 351       1.332e+01      -9.438e+00       1.177e-01           0.026          -0.003          -1.000       1.531e-01          0.1081
 352       1.313e+01      -9.438e+00       1.294e-01          -0.091          -0.047          -0.995       4.527e-01          0.2682
 353       1.276e+01      -9.438e+00       1.348e-01           0.033           0.002          -0.999       7.218e-01          0.3378
 354       1.224e+01      -9.438e+00       8.435e-02           0.143           0.048          -0.989       9.617e-01          0.2931
 355       1.159e+01      -9.439e+00      -2.464e-02           0.184           0.066          -0.981       1.147e+00          0.1939
 356       1.085e+01      -9.439e+00      -1.518e-01           0.156           0.053          -0.986       1.250e+00          0.0897
 357       1.007e+01      -9.439e+00      -2.422e-01           0.073           0.009          -0.997       1.274e+00          0.0604
 358       9.282e+00      -9.439e+00      -2.750e-01           0.010          -0.027          -1.000       1.234e+00          0.1175
 359       8.543e+00      -9.439e+00      -2.660e-01          -0.036          -0.055          -0.998       1.127e+00          0.2097
 360       7.894e+00      -9.439e+00      -2.282e-01          -0.083          -0.085          -0.993       9.573e-01          0.3283
 361       7.370e+00      -9.439e+00      -1.669e-01          -0.157          -0.134          -0.978       7.373e-01          0.4923
 362       7.003e+00      -9.439e+00      -7.972e-02          -0.329          -0.252          -0.910       4.945e-01          0.6507
 363       6.815e+00      -9.438e+00       4.323e-02          -0.713          -0.517          -0.473       3.228e-01         -0.2321
 364       6.815e+00      -9.438e+00       1.874e-01          -0.717          -0.508           0.478       3.212e-01         -2.9528
 365       7.003e+00      -9.438e+00       3.107e-01          -0.332          -0.232           0.914       4.927e-01         -3.2115
 366       7.370e+00      -9.438e+00       3.967e-01          -0.152          -0.106           0.983       7.342e-01         -1.7265
 367       7.894e+00      -9.438e+00       4.560e-01          -0.082          -0.059           0.995       9.555e-01         -1.1173
 368       8.543e+00      -9.438e+00       4.937e-01          -0.037          -0.031           0.999       1.126e+00         -0.8351
 369       9.282e+00      -9.438e+00       5.087e-01          -0.005          -0.011           1.000       1.233e+00         -0.6679
 370       1.007e+01      -9.438e+00       4.993e-01           0.028           0.008           1.000       1.270e+00         -0.5540
 371       1.085e+01      -9.438e+00       4.605e-01           0.071           0.030           0.997       1.237e+00         -0.4362
 372       1.159e+01      -9.438e+00       3.946e-01           0.108           0.048           0.993       1.132e+00         -0.3004
 373       1.224e+01      -9.438e+00       3.161e-01           0.133           0.059           0.989       9.607e-01         -0.1789
 374       1.276e+01      -9.438e+00       2.410e-01           0.153           0.068           0.986       7.316e-01         -0.0826
 375       1.313e+01      -9.438e+00       1.810e-01           0.174           0.076           0.982       4.586e-01         -0.0292
 376       1.332e+01      -9.438e+00       1.375e-01           0.357           0.144           0.923       1.658e-01          0.1437
Strip 15
 377       1.270e+01      -7.812e+00       9.805e-02           0.026          -0.003          -1.000       1.722e-01          0.1075
 378       1.250e+01      -7.812e+00       1.107e-01          -0.091          -0.047          -0.995       5.092e-01          0.2681
 379       1.210e+01      -7.812e+00       1.166e-01           0.033           0.002          -0.999       8.119e-01          0.3377
 380       1.153e+01      -7.812e+00       6.185e-02           0.143           0.048          -0.989       1.082e+00          0.2920
 381       1.083e+01      -7.812e+00      -5.637e-02           0.184           0.066          -0.981       1.290e+00          0.1904
 382       1.003e+01      -7.812e+00      -1.943e-01           0.156           0.053          -0.986       1.406e+00          0.0825
 383       9.178e+00      -7.812e+00      -2.923e-01           0.073           0.009          -0.997       1.433e+00          0.0495
 384       8.328e+00      -7.812e+00      -3.280e-01           0.010          -0.027          -1.000       1.388e+00          0.1039
 385       7.528e+00      -7.812e+00      -3.181e-01          -0.036          -0.055          -0.998       1.268e+00          0.1934
 386       6.823e+00      -7.812e+00      -2.772e-01          -0.083          -0.085          -0.993       1.077e+00          0.3090
 387       6.255e+00      -7.812e+00      -2.107e-01          -0.157          -0.134          -0.978       8.293e-01          0.4714
 388       5.857e+00      -7.812e+00      -1.161e-01          -0.329          -0.252          -0.910       5.563e-01          0.6524
 389       5.652e+00      -7.812e+00       1.725e-02          -0.713          -0.517          -0.473       3.632e-01         -0.1086
 390       5.652e+00      -7.812e+00       1.736e-01          -0.717          -0.508           0.477       3.613e-01         -2.6967
 391       5.857e+00      -7.811e+00       3.074e-01          -0.332          -0.232           0.914       5.542e-01         -3.0153
 392       6.255e+00      -7.811e+00       4.007e-01          -0.152          -0.106           0.983       8.258e-01         -1.6369
 393       6.823e+00      -7.811e+00       4.650e-01          -0.082          -0.059           0.995       1.075e+00         -1.0659
 394       7.528e+00      -7.811e+00       5.059e-01          -0.037          -0.031           0.999       1.266e+00         -0.8012
 395       8.328e+00      -7.811e+00       5.222e-01          -0.005          -0.011           1.000       1.387e+00         -0.6442
 396       9.178e+00      -7.811e+00       5.119e-01           0.028           0.008           1.000       1.429e+00         -0.5369
 397       1.003e+01      -7.811e+00       4.698e-01           0.071           0.030           0.997       1.391e+00         -0.4243
 398       1.083e+01      -7.811e+00       3.984e-01           0.108           0.048           0.993       1.274e+00         -0.2923
 399       1.153e+01      -7.811e+00       3.133e-01           0.133           0.059           0.989       1.081e+00         -0.1737
 400       1.210e+01      -7.812e+00       2.318e-01           0.153           0.068           0.986       8.229e-01         -0.0795
 401       1.250e+01      -7.812e+00       1.666e-01           0.174           0.076           0.982       5.159e-01         -0.0279
 402       1.270e+01      -7.812e+00       1.195e-01           0.357           0.144           0.923       1.865e-01          0.1431
Strip 16
 403       1.207e+01      -6.132e+00       7.774e-02           0.026          -0.003          -1.000       1.915e-01          0.1064
 404       1.185e+01      -6.132e+00       9.143e-02          -0.091          -0.047          -0.995       5.661e-01          0.2677
 405       1.142e+01      -6.132e+00       9.780e-02           0.033           0.002          -0.999       9.027e-01          0.3374
 406       1.081e+01      -6.132e+00       3.861e-02           0.143           0.048          -0.989       1.203e+00          0.2908
 407       1.005e+01      -6.132e+00      -8.914e-02           0.184           0.066          -0.981       1.434e+00          0.1866
 408       9.181e+00      -6.132e+00      -2.382e-01           0.156           0.053          -0.986       1.564e+00          0.0746
 409       8.263e+00      -6.132e+00      -3.442e-01           0.073           0.009          -0.997       1.593e+00          0.0379
 410       7.344e+00      -6.132e+00      -3.827e-01           0.010          -0.027          -1.000       1.543e+00          0.0894
 411       6.479e+00      -6.132e+00      -3.720e-01          -0.036          -0.055          -0.998       1.409e+00          0.1758
 412       5.717e+00      -6.132e+00      -3.278e-01          -0.083          -0.085          -0.993       1.197e+00          0.2878
 413       5.104e+00      -6.132e+00      -2.559e-01          -0.157          -0.134          -0.978       9.221e-01          0.4474
 414       4.674e+00      -6.132e+00      -1.537e-01          -0.329          -0.252          -0.910       6.185e-01          0.6494
 415       4.452e+00      -6.132e+00      -9.584e-03          -0.713          -0.517          -0.473       4.038e-01          0.0190
 416       4.452e+00      -6.132e+00       1.594e-01          -0.717          -0.508           0.477       4.016e-01         -2.4192
 417       4.674e+00      -6.132e+00       3.039e-01          -0.332          -0.232           0.914       6.161e-01         -2.7980
 418       5.104e+00      -6.132e+00       4.048e-01          -0.152          -0.106           0.983       9.181e-01         -1.5368
 419       5.717e+00      -6.131e+00       4.743e-01          -0.082          -0.059           0.995       1.195e+00         -1.0090
 420       6.479e+00      -6.131e+00       5.185e-01          -0.037          -0.031           0.999       1.408e+00         -0.7647
 421       7.344e+00      -6.131e+00       5.361e-01          -0.005          -0.011           1.000       1.542e+00         -0.6195
 422       8.263e+00      -6.131e+00       5.250e-01           0.028           0.008           1.000       1.589e+00         -0.5200
 423       9.181e+00      -6.131e+00       4.795e-01           0.071           0.030           0.997       1.546e+00         -0.4131
 424       1.005e+01      -6.132e+00       4.023e-01           0.108           0.048           0.993       1.416e+00         -0.2853
 425       1.081e+01      -6.132e+00       3.103e-01           0.133           0.059           0.989       1.201e+00         -0.1695
 426       1.142e+01      -6.132e+00       2.222e-01           0.153           0.068           0.986       9.150e-01         -0.0772
 427       1.185e+01      -6.132e+00       1.519e-01           0.174           0.076           0.982       5.735e-01         -0.0273
 428       1.207e+01      -6.132e+00       1.009e-01           0.357           0.144           0.923       2.073e-01          0.1419
Strip 17
 429       1.143e+01      -4.410e+00       5.692e-02           0.026          -0.003          -1.000       2.105e-01          0.1047
 430       1.119e+01      -4.410e+00       7.166e-02          -0.091          -0.047          -0.995       6.223e-01          0.2671
 431       1.072e+01      -4.410e+00       7.851e-02           0.033           0.002          -0.999       9.923e-01          0.3371
 432       1.006e+01      -4.410e+00       1.480e-02           0.143           0.048          -0.989       1.322e+00          0.2893
 433       9.244e+00      -4.410e+00      -1.227e-01           0.184           0.066          -0.981       1.576e+00          0.1823
 434       8.313e+00      -4.410e+00      -2.832e-01           0.156           0.053          -0.986       1.719e+00          0.0661
 435       7.324e+00      -4.410e+00      -3.972e-01           0.073           0.009          -0.997       1.751e+00          0.0255
 436       6.335e+00      -4.410e+00      -4.387e-01           0.010          -0.027          -1.000       1.696e+00          0.0745
 437       5.404e+00      -4.410e+00      -4.273e-01          -0.036          -0.055          -0.998       1.549e+00          0.1580
 438       4.584e+00      -4.410e+00      -3.796e-01          -0.083          -0.085          -0.993       1.316e+00          0.2655
 439       3.924e+00      -4.410e+00      -3.023e-01          -0.157          -0.134          -0.978       1.014e+00          0.4204
 440       3.461e+00      -4.410e+00      -1.922e-01          -0.328          -0.252          -0.910       6.800e-01          0.6408
 441       3.222e+00      -4.410e+00      -3.709e-02          -0.713          -0.517          -0.474       4.439e-01          0.1550
 442       3.222e+00      -4.410e+00       1.448e-01          -0.717          -0.508           0.477       4.415e-01         -2.1060
 443       3.461e+00      -4.410e+00       3.004e-01          -0.332          -0.232           0.914       6.772e-01         -2.5450
 444       3.924e+00      -4.410e+00       4.090e-01          -0.152          -0.106           0.983       1.009e+00         -1.4191
 445       4.584e+00      -4.410e+00       4.838e-01          -0.082          -0.059           0.995       1.313e+00         -0.9432
 446       5.404e+00      -4.410e+00       5.314e-01          -0.037          -0.031           0.999       1.548e+00         -0.7239
 447       6.335e+00      -4.410e+00       5.503e-01          -0.005          -0.011           1.000       1.695e+00         -0.5942
 448       7.324e+00      -4.410e+00       5.384e-01           0.028           0.008           1.000       1.746e+00         -0.5048
 449       8.313e+00      -4.410e+00       4.894e-01           0.071           0.030           0.997       1.700e+00         -0.4047
 450       9.244e+00      -4.410e+00       4.063e-01           0.108           0.048           0.993       1.557e+00         -0.2814
 451       1.006e+01      -4.410e+00       3.073e-01           0.133           0.059           0.989       1.321e+00         -0.1679
 452       1.072e+01      -4.410e+00       2.125e-01           0.153           0.068           0.986       1.006e+00         -0.0769
 453       1.119e+01      -4.410e+00       1.367e-01           0.174           0.076           0.982       6.305e-01         -0.0282
 454       1.143e+01      -4.410e+00       8.182e-02           0.357           0.144           0.923       2.279e-01          0.1394
Strip 18
 455       1.077e+01      -2.658e+00       3.573e-02           0.026          -0.003          -1.000       2.289e-01          0.1021
 456       1.051e+01      -2.658e+00       5.154e-02          -0.091          -0.047          -0.995       6.766e-01          0.2659
 457       1.002e+01      -2.658e+00       5.889e-02           0.033           0.002          -0.999       1.079e+00          0.3364
 458       9.307e+00      -2.658e+00      -9.432e-03           0.143           0.048          -0.989       1.437e+00          0.2870
 459       8.428e+00      -2.658e+00      -1.569e-01           0.184           0.066          -0.981       1.714e+00          0.1763
 460       7.429e+00      -2.658e+00      -3.290e-01           0.156           0.053          -0.986       1.869e+00          0.0558
 461       6.369e+00      -2.658e+00      -4.513e-01           0.073           0.009          -0.997       1.903e+00          0.0131
 462       5.309e+00      -2.658e+00      -4.957e-01           0.010          -0.027          -1.000       1.844e+00          0.0618
 463       4.310e+00      -2.658e+00      -4.835e-01          -0.036          -0.055          -0.998       1.684e+00          0.1438
 464       3.431e+00      -2.658e+00      -4.324e-01          -0.083          -0.085          -0.993       1.431e+00          0.2463
 465       2.723e+00      -2.658e+00      -3.494e-01          -0.157          -0.134          -0.978       1.102e+00          0.3934
 466       2.226e+00      -2.658e+00      -2.314e-01          -0.328          -0.252          -0.910       7.393e-01          0.6284
 467       1.971e+00      -2.658e+00      -6.507e-02          -0.713          -0.517          -0.474       4.827e-01          0.3140
 468       1.971e+00      -2.658e+00       1.300e-01          -0.717          -0.508           0.477       4.799e-01         -1.7224
 469       2.226e+00      -2.658e+00       2.968e-01          -0.332          -0.232           0.914       7.362e-01         -2.2209
 470       2.723e+00      -2.658e+00       4.132e-01          -0.152          -0.106           0.983       1.097e+00         -1.2659
 471       3.431e+00      -2.658e+00       4.935e-01          -0.082          -0.059           0.995       1.428e+00         -0.8592
 472       4.310e+00      -2.658e+00       5.445e-01          -0.037          -0.031           0.999       1.683e+00         -0.6755
 473       5.309e+00      -2.658e+00       5.648e-01          -0.005          -0.011           1.000       1.843e+00         -0.5682
 474       6.369e+00      -2.658e+00       5.520e-01           0.028           0.008           1.000       1.899e+00         -0.4940
 475       7.429e+00      -2.658e+00       4.995e-01           0.071           0.030           0.997       1.848e+00         -0.4039
 476       8.428e+00      -2.658e+00       4.104e-01           0.108           0.048           0.993       1.692e+00         -0.2857
 477       9.307e+00      -2.658e+00       3.042e-01           0.133           0.059           0.989       1.436e+00         -0.1732
 478       1.002e+01      -2.658e+00       2.025e-01           0.153           0.068           0.986       1.094e+00         -0.0816
 479       1.051e+01      -2.658e+00       1.213e-01           0.174           0.076           0.982       6.855e-01         -0.0324
 480       1.077e+01      -2.658e+00       6.243e-02           0.357           0.144           0.923       2.478e-01          0.1348
Strip 19
 481       1.010e+01      -8.881e-01       1.433e-02           0.026          -0.003          -1.000       2.461e-01          0.0996
 482       9.829e+00      -8.881e-01       3.121e-02          -0.091          -0.047          -0.995       7.277e-01          0.2652
 483       9.299e+00      -8.881e-01       3.906e-02           0.033           0.002          -0.999       1.160e+00          0.3348
 484       8.542e+00      -8.881e-01      -3.391e-02           0.143           0.048          -0.989       1.546e+00          0.2785
 485       7.604e+00      -8.881e-01      -1.914e-01           0.184           0.066          -0.981       1.843e+00          0.1590
 486       6.537e+00      -8.881e-01      -3.752e-01           0.156           0.053          -0.986       2.010e+00          0.0375
 487       5.404e+00      -8.881e-01      -5.059e-01           0.073           0.009          -0.997       2.047e+00          0.0048
 488       4.272e+00      -8.881e-01      -5.533e-01           0.010          -0.027          -1.000       1.983e+00          0.0653
 489       3.205e+00      -8.881e-01      -5.402e-01          -0.036          -0.055          -0.998       1.812e+00          0.1519
 490       2.266e+00      -8.881e-01      -4.857e-01          -0.083          -0.085          -0.993       1.539e+00          0.2513
 491       1.509e+00      -8.881e-01      -3.971e-01          -0.157          -0.134          -0.978       1.185e+00          0.3865
 492       9.790e-01      -8.881e-01      -2.710e-01          -0.328          -0.252          -0.910       7.952e-01          0.6115
 493       7.060e-01      -8.881e-01      -9.334e-02          -0.713          -0.517          -0.474       5.192e-01          0.4923
 494       7.060e-01      -8.881e-01       1.150e-01          -0.717          -0.508           0.477       5.161e-01         -1.1482
 495       9.790e-01      -8.880e-01       2.932e-01          -0.332          -0.232           0.914       7.917e-01         -1.6731
 496       1.509e+00      -8.880e-01       4.176e-01          -0.152          -0.106           0.983       1.180e+00         -0.9967
 497       2.266e+00      -8.880e-01       5.033e-01          -0.082          -0.059           0.995       1.536e+00         -0.7275
 498       3.205e+00      -8.880e-01       5.578e-01          -0.037          -0.031           0.999       1.809e+00         -0.6145
 499       4.272e+00      -8.880e-01       5.794e-01          -0.005          -0.011           1.000       1.982e+00         -0.5429
 500       5.404e+00      -8.880e-01       5.658e-01           0.028           0.008           1.000       2.042e+00         -0.4940
 501       6.537e+00      -8.880e-01       5.097e-01           0.071           0.030           0.997       1.988e+00         -0.4230
 502       7.604e+00      -8.880e-01       4.145e-01           0.108           0.048           0.993       1.820e+00         -0.3141
 503       8.542e+00      -8.880e-01       3.011e-01           0.133           0.059           0.989       1.544e+00         -0.2002
 504       9.299e+00      -8.881e-01       1.925e-01           0.153           0.068           0.986       1.176e+00         -0.1020
 505       9.829e+00      -8.881e-01       1.057e-01           0.174           0.076           0.982       7.373e-01         -0.0456
 506       1.010e+01      -8.881e-01       4.284e-02           0.356           0.144           0.923       2.665e-01          0.1241
Strip 20
 507       1.010e+01       8.881e-01       1.433e-02           0.026           0.003          -1.000       2.461e-01          0.0996
 508       9.829e+00       8.881e-01       3.121e-02          -0.091           0.047          -0.995       7.277e-01          0.2652
 509       9.299e+00       8.881e-01       3.906e-02           0.033          -0.002          -0.999       1.160e+00          0.3348
 510       8.542e+00       8.881e-01      -3.391e-02           0.143          -0.048          -0.989       1.546e+00          0.2785
 511       7.604e+00       8.881e-01      -1.914e-01           0.184          -0.066          -0.981       1.843e+00          0.1590
 512       6.537e+00       8.881e-01      -3.752e-01           0.156          -0.053          -0.986       2.010e+00          0.0375
 513       5.404e+00       8.881e-01      -5.059e-01           0.073          -0.009          -0.997       2.047e+00          0.0048
 514       4.272e+00       8.881e-01      -5.533e-01           0.010           0.027          -1.000       1.983e+00          0.0653
 515       3.205e+00       8.881e-01      -5.402e-01          -0.036           0.055          -0.998       1.812e+00          0.1519
 516       2.266e+00       8.881e-01      -4.857e-01          -0.083           0.085          -0.993       1.539e+00          0.2513
 517       1.509e+00       8.881e-01      -3.971e-01          -0.157           0.134          -0.978       1.185e+00          0.3865
 518       9.790e-01       8.881e-01      -2.710e-01          -0.328           0.252          -0.910       7.952e-01          0.6115
 519       7.060e-01       8.881e-01      -9.334e-02          -0.713           0.517          -0.474       5.192e-01          0.4923
 520       7.060e-01       8.881e-01       1.150e-01          -0.717           0.508           0.477       5.161e-01         -1.1482
 521       9.790e-01       8.880e-01       2.932e-01          -0.332           0.232           0.914       7.917e-01         -1.6731
 522       1.509e+00       8.880e-01       4.176e-01          -0.152           0.106           0.983       1.180e+00         -0.9967
 523       2.266e+00       8.880e-01       5.033e-01          -0.082           0.059           0.995       1.536e+00         -0.7275
 524       3.205e+00       8.880e-01       5.578e-01          -0.037           0.031           0.999       1.809e+00         -0.6145
 525       4.272e+00       8.880e-01       5.794e-01          -0.005           0.011           1.000       1.982e+00         -0.5429
 526       5.404e+00       8.880e-01       5.658e-01           0.028          -0.008           1.000       2.042e+00         -0.4940
 527       6.537e+00       8.880e-01       5.097e-01           0.071          -0.030           0.997       1.988e+00         -0.4230
 528       7.604e+00       8.880e-01       4.145e-01           0.108          -0.048           0.993       1.820e+00         -0.3141
 529       8.542e+00       8.880e-01       3.011e-01           0.133          -0.059           0.989       1.544e+00         -0.2002
 530       9.299e+00       8.881e-01       1.925e-01           0.153          -0.068           0.986       1.176e+00         -0.1020
 531       9.829e+00       8.881e-01       1.057e-01           0.174          -0.076           0.982       7.373e-01         -0.0456
 532       1.010e+01       8.881e-01       4.284e-02           0.356          -0.144           0.923       2.665e-01          0.1241
Strip 21
 533       1.077e+01       2.658e+00       3.573e-02           0.026           0.003          -1.000       2.289e-01          0.1021
 534       1.051e+01       2.658e+00       5.154e-02          -0.091           0.047          -0.995       6.766e-01          0.2659
 535       1.002e+01       2.658e+00       5.889e-02           0.033          -0.002          -0.999       1.079e+00          0.3364
 536       9.307e+00       2.658e+00      -9.432e-03           0.143          -0.048          -0.989       1.437e+00          0.2870
 537       8.428e+00       2.658e+00      -1.569e-01           0.184          -0.066          -0.981       1.714e+00          0.1763
 538       7.429e+00       2.658e+00      -3.290e-01           0.156          -0.053          -0.986       1.869e+00          0.0558
 539       6.369e+00       2.658e+00      -4.513e-01           0.073          -0.009          -0.997       1.903e+00          0.0131
 540       5.309e+00       2.658e+00      -4.957e-01           0.010           0.027          -1.000       1.844e+00          0.0618
 541       4.310e+00       2.658e+00      -4.835e-01          -0.036           0.055          -0.998       1.684e+00          0.1438
 542       3.431e+00       2.658e+00      -4.324e-01          -0.083           0.085          -0.993       1.431e+00          0.2463
 543       2.723e+00       2.658e+00      -3.494e-01          -0.157           0.134          -0.978       1.102e+00          0.3934
 544       2.226e+00       2.658e+00      -2.314e-01          -0.328           0.252          -0.910       7.393e-01          0.6284
 545       1.971e+00       2.658e+00      -6.507e-02          -0.713           0.517          -0.474       4.827e-01          0.3140
 546       1.971e+00       2.658e+00       1.300e-01          -0.717           0.508           0.477       4.799e-01         -1.7224
 547       2.226e+00       2.658e+00       2.968e-01          -0.332           0.232           0.914       7.362e-01         -2.2209
 548       2.723e+00       2.658e+00       4.132e-01          -0.152           0.106           0.983       1.097e+00         -1.2659
 549       3.431e+00       2.658e+00       4.935e-01          -0.082           0.059           0.995       1.428e+00         -0.8592
 550       4.310e+00       2.658e+00       5.445e-01          -0.037           0.031           0.999       1.683e+00         -0.6755
 551       5.309e+00       2.658e+00       5.648e-01          -0.005           0.011           1.000       1.843e+00         -0.5682
 552       6.369e+00       2.658e+00       5.520e-01           0.028          -0.008           1.000       1.899e+00         -0.4940
 553       7.429e+00       2.658e+00       4.995e-01           0.071          -0.030           0.997       1.848e+00         -0.4039
 554       8.428e+00       2.658e+00       4.104e-01           0.108          -0.048           0.993       1.692e+00         -0.2857
 555       9.307e+00       2.658e+00       3.042e-01           0.133          -0.059           0.989       1.436e+00         -0.1732
 556       1.002e+01       2.658e+00       2.025e-01           0.153          -0.068           0.986       1.094e+00         -0.0816
 557       1.051e+01       2.658e+00       1.213e-01           0.174          -0.076           0.982       6.855e-01         -0.0324
 558       1.077e+01       2.658e+00       6.243e-02           0.357          -0.144           0.923       2.478e-01          0.1348
Strip 22
 559       1.143e+01       4.410e+00       5.692e-02           0.026           0.003          -1.000       2.105e-01          0.1047
 560       1.119e+01       4.410e+00       7.166e-02          -0.091           0.047          -0.995       6.223e-01          0.2671
 561       1.072e+01       4.410e+00       7.851e-02           0.033          -0.002          -0.999       9.923e-01          0.3371
 562       1.006e+01       4.410e+00       1.480e-02           0.143          -0.048          -0.989       1.322e+00          0.2893
 563       9.244e+00       4.410e+00      -1.227e-01           0.184          -0.066          -0.981       1.576e+00          0.1823
 564       8.313e+00       4.410e+00      -2.832e-01           0.156          -0.053          -0.986       1.719e+00          0.0661
 565       7.324e+00       4.410e+00      -3.972e-01           0.073          -0.009          -0.997       1.751e+00          0.0255
 566       6.335e+00       4.410e+00      -4.387e-01           0.010           0.027          -1.000       1.696e+00          0.0745
 567       5.404e+00       4.410e+00      -4.273e-01          -0.036           0.055          -0.998       1.549e+00          0.1580
[...]
 852       1.506e+01       1.931e+01       4.617e-02           0.010           0.027          -1.000       2.932e-01          0.1463
 853       1.470e+01       1.931e+01       5.057e-02          -0.036           0.055          -0.998       2.677e-01          0.2555
 854       1.439e+01       1.931e+01       6.891e-02          -0.083           0.085          -0.993       2.274e-01          0.3915
 855       1.413e+01       1.931e+01       9.871e-02          -0.158           0.134          -0.978       1.751e-01          0.5578
 856       1.396e+01       1.931e+01       1.411e-01          -0.329           0.252          -0.910       1.173e-01          0.5706
 857       1.386e+01       1.931e+01       2.008e-01          -0.714           0.518          -0.471       7.659e-02         -0.9443
 858       1.386e+01       1.931e+01       2.709e-01          -0.716           0.507           0.480       7.645e-02         -4.2581
 859       1.396e+01       1.931e+01       3.308e-01          -0.331           0.232           0.915       1.172e-01         -4.1601
 860       1.413e+01       1.931e+01       3.726e-01          -0.151           0.106           0.983       1.746e-01         -2.1392
 861       1.439e+01       1.931e+01       4.015e-01          -0.082           0.059           0.995       2.271e-01         -1.3400
 862       1.470e+01       1.930e+01       4.198e-01          -0.037           0.031           0.999       2.675e-01         -0.9704
 863       1.506e+01       1.930e+01       4.271e-01          -0.005           0.011           1.000       2.930e-01         -0.7521
 864       1.544e+01       1.930e+01       4.225e-01           0.028          -0.008           1.000       3.018e-01         -0.6057
 865       1.583e+01       1.931e+01       4.036e-01           0.071          -0.030           0.997       2.938e-01         -0.4664
 866       1.618e+01       1.931e+01       3.716e-01           0.108          -0.048           0.993       2.690e-01         -0.3179
 867       1.650e+01       1.931e+01       3.335e-01           0.133          -0.059           0.989       2.282e-01         -0.1910
 868       1.675e+01       1.931e+01       2.970e-01           0.153          -0.068           0.986       1.738e-01         -0.0922
 869       1.693e+01       1.931e+01       2.678e-01           0.174          -0.076           0.982       1.089e-01         -0.0384
 870       1.702e+01       1.931e+01       2.466e-01           0.357          -0.144           0.923       3.936e-02          0.1423
Strip 34
 871       1.729e+01       2.002e+01       2.457e-01           0.026           0.003          -1.000       2.782e-02          0.0792
 872       1.721e+01       2.002e+01       2.509e-01          -0.091           0.047          -0.995       8.220e-02          0.2244
 873       1.704e+01       2.002e+01       2.534e-01           0.033          -0.002          -0.999       1.311e-01          0.2830
 874       1.681e+01       2.002e+01       2.307e-01           0.143          -0.048          -0.989       1.748e-01          0.2366
 875       1.652e+01       2.002e+01       1.818e-01           0.184          -0.066          -0.981       2.084e-01          0.1441
 876       1.619e+01       2.002e+01       1.247e-01           0.156          -0.053          -0.986       2.273e-01          0.0538
 877       1.583e+01       2.002e+01       8.413e-02           0.073          -0.009          -0.997       2.314e-01          0.0407
 878       1.548e+01       2.002e+01       6.939e-02           0.010           0.027          -1.000       2.241e-01          0.1146
 879       1.515e+01       2.002e+01       7.346e-02          -0.036           0.055          -0.998       2.047e-01          0.2271
 880       1.486e+01       2.002e+01       9.040e-02          -0.083           0.085          -0.993       1.738e-01          0.3683
 881       1.462e+01       2.002e+01       1.179e-01          -0.158           0.134          -0.978       1.338e-01          0.5414
 882       1.446e+01       2.002e+01       1.571e-01          -0.329           0.252          -0.910       8.968e-02          0.5690
 883       1.437e+01       2.002e+01       2.122e-01          -0.715           0.518          -0.470       5.853e-02         -0.9076
 884       1.437e+01       2.002e+01       2.770e-01          -0.716           0.507           0.480       5.845e-02         -4.1791
 885       1.446e+01       2.002e+01       3.323e-01          -0.331           0.232           0.915       8.964e-02         -4.0933
 886       1.462e+01       2.002e+01       3.709e-01          -0.151           0.106           0.983       1.335e-01         -2.0972
 887       1.486e+01       2.002e+01       3.975e-01          -0.082           0.059           0.995       1.736e-01         -1.3040
 888       1.515e+01       2.002e+01       4.145e-01          -0.037           0.031           0.999       2.045e-01         -0.9350
 889       1.548e+01       2.002e+01       4.212e-01          -0.005           0.011           1.000       2.240e-01         -0.7170
 890       1.583e+01       2.002e+01       4.169e-01           0.028          -0.008           1.000       2.307e-01         -0.5730
 891       1.619e+01       2.002e+01       3.995e-01           0.071          -0.030           0.997       2.245e-01         -0.4393
 892       1.652e+01       2.002e+01       3.700e-01           0.108          -0.048           0.993       2.056e-01         -0.2989
 893       1.681e+01       2.002e+01       3.347e-01           0.133          -0.059           0.989       1.744e-01         -0.1809
 894       1.704e+01       2.002e+01       3.010e-01           0.153          -0.068           0.986       1.328e-01         -0.0900
 895       1.721e+01       2.002e+01       2.741e-01           0.174          -0.076           0.982       8.326e-02         -0.0428
 896       1.729e+01       2.002e+01       2.545e-01           0.357          -0.144           0.923       3.008e-02          0.1379
Strip 35
 897       1.751e+01       2.060e+01       2.527e-01           0.026           0.003          -1.000       2.037e-02          0.0448
 898       1.743e+01       2.060e+01       2.575e-01          -0.091           0.047          -0.995       6.020e-02          0.1805
 899       1.728e+01       2.060e+01       2.598e-01           0.033          -0.002          -0.999       9.604e-02          0.2324
 900       1.706e+01       2.060e+01       2.387e-01           0.143          -0.048          -0.989       1.280e-01          0.1851
 901       1.679e+01       2.060e+01       1.930e-01           0.184          -0.066          -0.981       1.527e-01          0.0941
 902       1.648e+01       2.060e+01       1.398e-01           0.156          -0.053          -0.986       1.665e-01          0.0035
 903       1.615e+01       2.060e+01       1.019e-01           0.073          -0.009          -0.997       1.695e-01         -0.0136
 904       1.582e+01       2.060e+01       8.816e-02           0.010           0.027          -1.000       1.641e-01          0.0561
 905       1.551e+01       2.060e+01       9.196e-02          -0.036           0.055          -0.998       1.499e-01          0.1693
 906       1.524e+01       2.060e+01       1.078e-01          -0.083           0.085          -0.993       1.273e-01          0.3174
 907       1.502e+01       2.060e+01       1.334e-01          -0.158           0.134          -0.978       9.799e-02          0.5034
 908       1.487e+01       2.060e+01       1.700e-01          -0.329           0.252          -0.910       6.567e-02          0.5676
 909       1.479e+01       2.060e+01       2.215e-01          -0.715           0.518          -0.470       4.286e-02         -0.8039
 910       1.479e+01       2.060e+01       2.818e-01          -0.715           0.507           0.481       4.282e-02         -3.9689
 911       1.487e+01       2.060e+01       3.335e-01          -0.331           0.232           0.915       6.567e-02         -3.9237
 912       1.502e+01       2.060e+01       3.695e-01          -0.151           0.106           0.983       9.776e-02         -1.9990
 913       1.524e+01       2.060e+01       3.943e-01          -0.082           0.059           0.995       1.272e-01         -1.2266
 914       1.551e+01       2.059e+01       4.101e-01          -0.037           0.031           0.999       1.498e-01         -0.8651
 915       1.582e+01       2.059e+01       4.164e-01          -0.005           0.011           1.000       1.640e-01         -0.6549
 916       1.615e+01       2.059e+01       4.124e-01           0.028          -0.008           1.000       1.690e-01         -0.5230
 917       1.648e+01       2.060e+01       3.962e-01           0.071          -0.030           0.997       1.645e-01         -0.4051
 918       1.679e+01       2.060e+01       3.686e-01           0.108          -0.048           0.993       1.506e-01         -0.2813
 919       1.706e+01       2.060e+01       3.358e-01           0.133          -0.059           0.989       1.277e-01         -0.1797
 920       1.728e+01       2.060e+01       3.043e-01           0.153          -0.068           0.986       9.728e-02         -0.1026
 921       1.743e+01       2.060e+01       2.791e-01           0.174          -0.076           0.982       6.098e-02         -0.0661
 922       1.751e+01       2.060e+01       2.609e-01           0.357          -0.144           0.923       2.203e-02          0.1159
Strip 36
 923       1.767e+01       2.103e+01       2.579e-01           0.026           0.003          -1.000       1.386e-02         -0.0591
 924       1.760e+01       2.103e+01       2.626e-01          -0.091           0.047          -0.995       4.095e-02          0.0591
 925       1.745e+01       2.103e+01       2.647e-01           0.033          -0.002          -0.999       6.533e-02          0.1047
 926       1.725e+01       2.103e+01       2.447e-01           0.143          -0.048          -0.989       8.707e-02          0.0691
 927       1.699e+01       2.103e+01       2.015e-01           0.184          -0.066          -0.981       1.039e-01         -0.0028
 928       1.670e+01       2.103e+01       1.512e-01           0.156          -0.053          -0.986       1.132e-01         -0.0777
 929       1.639e+01       2.103e+01       1.154e-01           0.073          -0.009          -0.997       1.153e-01         -0.0933
 930       1.608e+01       2.103e+01       1.024e-01           0.010           0.027          -1.000       1.116e-01         -0.0355
 931       1.578e+01       2.103e+01       1.059e-01          -0.036           0.055          -0.998       1.020e-01          0.0631
 932       1.553e+01       2.103e+01       1.209e-01          -0.083           0.085          -0.993       8.659e-02          0.2078
 933       1.532e+01       2.103e+01       1.452e-01          -0.158           0.134          -0.978       6.665e-02          0.4113
 934       1.517e+01       2.103e+01       1.797e-01          -0.329           0.252          -0.910       4.466e-02          0.5419
 935       1.510e+01       2.103e+01       2.284e-01          -0.715           0.518          -0.469       2.915e-02         -0.6345
 936       1.510e+01       2.103e+01       2.855e-01          -0.715           0.507           0.481       2.913e-02         -3.5968
 937       1.517e+01       2.103e+01       3.344e-01          -0.331           0.231           0.915       4.468e-02         -3.6186
 938       1.532e+01       2.103e+01       3.684e-01          -0.151           0.106           0.983       6.650e-02         -1.8218
 939       1.553e+01       2.103e+01       3.919e-01          -0.082           0.059           0.995       8.651e-02         -1.0930
 940       1.578e+01       2.103e+01       4.069e-01          -0.037           0.031           0.999       1.019e-01         -0.7580
 941       1.608e+01       2.103e+01       4.128e-01          -0.005           0.011           1.000       1.116e-01         -0.5795
 942       1.639e+01       2.103e+01       4.091e-01           0.028          -0.008           1.000       1.149e-01         -0.4827
 943       1.670e+01       2.103e+01       3.937e-01           0.071          -0.030           0.997       1.119e-01         -0.3987
 944       1.699e+01       2.103e+01       3.676e-01           0.108          -0.048           0.993       1.024e-01         -0.3062
 945       1.725e+01       2.103e+01       3.365e-01           0.133          -0.059           0.989       8.689e-02         -0.2343
 946       1.745e+01       2.103e+01       3.068e-01           0.153          -0.068           0.986       6.617e-02         -0.1841
 947       1.760e+01       2.103e+01       2.830e-01           0.174          -0.076           0.982       4.147e-02         -0.1666
 948       1.767e+01       2.103e+01       2.657e-01           0.357          -0.144           0.923       1.499e-02          0.0215
Strip 37
 949       1.778e+01       2.132e+01       2.615e-01           0.026           0.003          -1.000       8.032e-03         -0.5554
 950       1.771e+01       2.132e+01       2.659e-01          -0.091           0.047          -0.995       2.373e-02         -0.4785
 951       1.757e+01       2.132e+01       2.680e-01           0.033          -0.002          -0.999       3.786e-02         -0.3836
 952       1.737e+01       2.133e+01       2.488e-01           0.143          -0.048          -0.989       5.047e-02         -0.2831
 953       1.712e+01       2.133e+01       2.072e-01           0.184          -0.066          -0.981       6.020e-02         -0.2188
 954       1.684e+01       2.133e+01       1.588e-01           0.156          -0.053          -0.986       6.563e-02         -0.2094
 955       1.655e+01       2.133e+01       1.244e-01           0.073          -0.009          -0.997       6.682e-02         -0.1962
 956       1.625e+01       2.133e+01       1.119e-01           0.010           0.027          -1.000       6.471e-02         -0.1478
 957       1.597e+01       2.133e+01       1.153e-01          -0.036           0.055          -0.998       5.909e-02         -0.0812
 958       1.572e+01       2.133e+01       1.297e-01          -0.083           0.085          -0.993       5.018e-02          0.0195
 959       1.552e+01       2.133e+01       1.530e-01          -0.158           0.134          -0.978       3.863e-02          0.1965
 960       1.538e+01       2.133e+01       1.863e-01          -0.329           0.252          -0.910       2.588e-02          0.3882
 961       1.531e+01       2.133e+01       2.331e-01          -0.715           0.518          -0.469       1.689e-02         -0.4847
 962       1.531e+01       2.132e+01       2.880e-01          -0.715           0.507           0.481       1.689e-02         -3.0356
 963       1.538e+01       2.132e+01       3.350e-01          -0.331           0.231           0.915       2.590e-02         -3.1258
 964       1.552e+01       2.132e+01       3.677e-01          -0.151           0.106           0.983       3.855e-02         -1.5309
 965       1.572e+01       2.132e+01       3.903e-01          -0.082           0.059           0.995       5.014e-02         -0.9071
 966       1.597e+01       2.132e+01       4.047e-01          -0.037           0.031           0.999       5.906e-02         -0.6577
 967       1.625e+01       2.132e+01       4.104e-01          -0.005           0.011           1.000       6.467e-02         -0.5465
 968       1.655e+01       2.132e+01       4.068e-01           0.028          -0.008           1.000       6.662e-02         -0.5015
 969       1.684e+01       2.132e+01       3.920e-01           0.071          -0.030           0.997       6.483e-02         -0.4793
 970       1.712e+01       2.132e+01       3.669e-01           0.108          -0.048           0.993       5.935e-02         -0.4858
 971       1.737e+01       2.132e+01       3.370e-01           0.133          -0.059           0.989       5.036e-02         -0.5510
 972       1.757e+01       2.132e+01       3.084e-01           0.153          -0.068           0.986       3.835e-02         -0.6423
 973       1.771e+01       2.132e+01       2.855e-01           0.174          -0.076           0.982       2.404e-02         -0.7080
 974       1.778e+01       2.132e+01       2.690e-01           0.357          -0.144           0.923       8.684e-03         -0.5086
Strip 38
 975       1.784e+01       2.147e+01       2.632e-01           0.026           0.003          -1.000       2.630e-03         -1.1864
 976       1.777e+01       2.147e+01       2.676e-01          -0.091           0.047          -0.995       7.770e-03         -1.1724
 977       1.763e+01       2.147e+01       2.696e-01           0.033          -0.002          -0.999       1.240e-02         -1.0229
 978       1.744e+01       2.147e+01       2.508e-01           0.143          -0.048          -0.989       1.652e-02         -0.7441
 979       1.719e+01       2.147e+01       2.101e-01           0.184          -0.066          -0.981       1.971e-02         -0.4886
 980       1.692e+01       2.147e+01       1.626e-01           0.156          -0.053          -0.986       2.149e-02         -0.3435
 981       1.662e+01       2.147e+01       1.289e-01           0.073          -0.009          -0.997       2.188e-02         -0.2715
 982       1.633e+01       2.147e+01       1.166e-01           0.010           0.027          -1.000       2.118e-02         -0.2201
 983       1.606e+01       2.147e+01       1.200e-01          -0.036           0.055          -0.998       1.935e-02         -0.1736
 984       1.581e+01       2.147e+01       1.341e-01          -0.083           0.085          -0.993       1.643e-02         -0.1088
 985       1.562e+01       2.147e+01       1.570e-01          -0.158           0.134          -0.978       1.265e-02          0.0220
 986       1.548e+01       2.147e+01       1.895e-01          -0.329           0.252          -0.910       8.473e-03          0.2301
 987       1.541e+01       2.147e+01       2.354e-01          -0.715           0.518          -0.469       5.530e-03         -0.2605
 988       1.541e+01       2.147e+01       2.892e-01          -0.715           0.507           0.482       5.529e-03         -2.2592
 989       1.548e+01       2.147e+01       3.353e-01          -0.331           0.231           0.915       8.479e-03         -2.4599
 990       1.562e+01       2.147e+01       3.674e-01          -0.151           0.106           0.983       1.262e-02         -1.2028
 991       1.581e+01       2.147e+01       3.895e-01          -0.082           0.059           0.995       1.642e-02         -0.7611
 992       1.606e+01       2.147e+01       4.036e-01          -0.037           0.031           0.999       1.934e-02         -0.6077
 993       1.633e+01       2.147e+01       4.092e-01          -0.005           0.011           1.000       2.117e-02         -0.5381
 994       1.662e+01       2.147e+01       4.056e-01           0.028          -0.008           1.000       2.181e-02         -0.5102
 995       1.692e+01       2.147e+01       3.912e-01           0.071          -0.030           0.997       2.123e-02         -0.5100
 996       1.719e+01       2.147e+01       3.666e-01           0.108          -0.048           0.993       1.943e-02         -0.5857
 997       1.744e+01       2.147e+01       3.373e-01           0.133          -0.059           0.989       1.649e-02         -0.7984
 998       1.763e+01       2.147e+01       3.092e-01           0.153          -0.068           0.986       1.255e-02         -1.1066
 999       1.777e+01       2.147e+01       2.868e-01           0.174          -0.076           0.982       7.869e-03         -1.3331
1000       1.784e+01       2.147e+01       2.706e-01           0.357          -0.144           0.923       2.843e-03         -1.1716










