xflr5 v6.61

Plane Name
T1-10.0 m/s-Panel-Inviscid
QInf  =   10.000000 m/s
Alpha =    0.000000
Beta  =    0.000°
Phi   =    0.000°
Ctrl  =    0.000
CL    =    0.148880
Cy    =    0.000000
Cd    =    0.001000     ICd   =    0.001000     PCd   =    0.000000
Cl   = -5.43264e-16
Cm   =    -0.24373
ICn   =    0.000000     PCn   =    0.000000 
XCP   =   11.270928     YCP   =    0.000000     ZCP   =    0.985407  
XNP   =    0.000000
Bending = 10194.099753

Main Wing
  y-span        Chord      Ai         Cl        PCd          ICd        CmGeom    CmAirf@chord/4    XTrtop    XTrBot      XCP       BM
  -21.4733     2.4626    -3.164    0.072746    0.000000    0.004022   -0.605374   -0.030467     0.0000    0.0000    0.5941    0.0000
  -21.3266     2.5130    -2.003    0.114034    0.000000    0.003988   -0.826719   -0.044672     0.0000    0.0000    0.6114    0.1215
  -21.0342     2.6135    -1.235    0.142707    0.000000    0.003077   -0.933004   -0.050153     0.0000    0.0000    0.5911    1.5231
  -20.5982     2.7633    -0.802    0.160208    0.000000    0.002244   -0.967133   -0.053843     0.0000    0.0000    0.5787    7.3473
  -20.0214     2.9614    -0.573    0.170359    0.000000    0.001705   -0.941285   -0.056212     0.0000    0.0000    0.5726   23.2017
  -19.3079     3.2066    -0.447    0.175471    0.000000    0.001368   -0.875270   -0.057664     0.0000    0.0000    0.5711   57.4554
  -18.4625     3.4970    -0.375    0.177107    0.000000    0.001159   -0.787880   -0.058495     0.0000    0.0000    0.5726   121.4138
  -17.4909     3.8308    -0.336    0.176413    0.000000    0.001035   -0.693236   -0.058944     0.0000    0.0000    0.5765   229.3728
  -16.3999     4.2056    -0.319    0.174173    0.000000    0.000968   -0.600212   -0.059174     0.0000    0.0000    0.5822   398.5405
  -15.1969     4.6189    -0.315    0.170888    0.000000    0.000939   -0.513613   -0.059282     0.0000    0.0000    0.5896   648.7974
  -13.8900     5.0679    -0.321    0.166865    0.000000    0.000934   -0.435606   -0.059320     0.0000    0.0000    0.5985   1002.2517
  -12.4883     5.5495    -0.333    0.162276    0.000000    0.000942   -0.366797   -0.059314     0.0000    0.0000    0.6088   1482.5663
  -11.0012     6.0604    -0.348    0.157216    0.000000    0.000956   -0.306957   -0.059279     0.0000    0.0000    0.6208   2114.0438
   -9.4390     6.5971    -0.367    0.151714    0.000000    0.000972   -0.255435   -0.059221     0.0000    0.0000    0.6347   2920.4855
   -7.8124     7.1560    -0.387    0.145748    0.000000    0.000984   -0.211411   -0.059138     0.0000    0.0000    0.6508   3923.8502
   -6.1323     7.7332    -0.406    0.139242    0.000000    0.000986   -0.174033   -0.059014     0.0000    0.0000    0.6699   5142.7551
   -4.4104     8.3248    -0.419    0.132032    0.000000    0.000966   -0.142473   -0.058794     0.0000    0.0000    0.6926   6590.8625
   -2.6584     8.9267    -0.412    0.123794    0.000000    0.000890   -0.115953   -0.058344     0.0000    0.0000    0.7195   8275.1662
   -0.8881     9.5349    -0.276    0.113858    0.000000    0.000549   -0.093811   -0.057486     0.0000    0.0000    0.7512   10194.0998
    0.8881     9.5349    -0.276    0.113858    0.000000    0.000549   -0.093811   -0.057486     0.0000    0.0000    0.7512   10194.0998
    2.6584     8.9267    -0.412    0.123794    0.000000    0.000890   -0.115953   -0.058344     0.0000    0.0000    0.7195   8275.1662
    4.4104     8.3248    -0.419    0.132032    0.000000    0.000966   -0.142473   -0.058794     0.0000    0.0000    0.6926   6590.8625
    6.1323     7.7332    -0.406    0.139242    0.000000    0.000986   -0.174033   -0.059014     0.0000    0.0000    0.6699   5142.7551
    7.8124     7.1560    -0.387    0.145748    0.000000    0.000984   -0.211411   -0.059138     0.0000    0.0000    0.6508   3923.8502
    9.4390     6.5971    -0.367    0.151714    0.000000    0.000972   -0.255435   -0.059221     0.0000    0.0000    0.6347   2920.4855
   11.0012     6.0604    -0.348    0.157216    0.000000    0.000956   -0.306957   -0.059279     0.0000    0.0000    0.6208   2114.0438
   12.4883     5.5495    -0.333    0.162276    0.000000    0.000942   -0.366797   -0.059314     0.0000    0.0000    0.6088   1482.5663
   13.8900     5.0679    -0.321    0.166865    0.000000    0.000934   -0.435606   -0.059320     0.0000    0.0000    0.5985   1002.2517
   15.1969     4.6189    -0.315    0.170888    0.000000    0.000939   -0.513613   -0.059282     0.0000    0.0000    0.5896   648.7974
   16.3999     4.2056    -0.319    0.174173    0.000000    0.000968   -0.600212   -0.059174     0.0000    0.0000    0.5822   398.5405
   17.4909     3.8308    -0.336    0.176413    0.000000    0.001035   -0.693236   -0.058944     0.0000    0.0000    0.5765   229.3728
   18.4625     3.4970    -0.375    0.177107    0.000000    0.001159   -0.787880   -0.058495     0.0000    0.0000    0.5726   121.4138
   19.3079     3.2066    -0.447    0.175471    0.000000    0.001368   -0.875270   -0.057664     0.0000    0.0000    0.5711   57.4554
   20.0214     2.9614    -0.573    0.170359    0.000000    0.001705   -0.941285   -0.056212     0.0000    0.0000    0.5726   23.2017
   20.5982     2.7633    -0.802    0.160208    0.000000    0.002244   -0.967133   -0.053843     0.0000    0.0000    0.5787    7.3473
   21.0342     2.6135    -1.235    0.142707    0.000000    0.003077   -0.933004   -0.050153     0.0000    0.0000    0.5911    1.5231
   21.3266     2.5130    -2.003    0.114034    0.000000    0.003988   -0.826719   -0.044672     0.0000    0.0000    0.6114    0.1215
   21.4733     2.4626    -3.164    0.072746    0.000000    0.004022   -0.605374   -0.030467     0.0000    0.0000    0.5941    0.0000


Main Wing Cp Coefficients
 Panel     CtrlPt.x        CtrlPt.y        CtrlPt.z       Nx      Ny       Nz        Area       Cp
Main WingCp Coefficients
Strip 1
  13       1.784e+01      -2.147e+01       2.632e-01           0.026          -0.003          -1.000       2.630e-03          0.0145
  14       1.777e+01      -2.147e+01       2.676e-01          -0.091          -0.047          -0.995       7.770e-03          0.0915
  15       1.763e+01      -2.147e+01       2.696e-01           0.033           0.002          -0.999       1.240e-02          0.1523
  16       1.744e+01      -2.147e+01       2.508e-01           0.143           0.048          -0.989       1.652e-02          0.1313
  17       1.719e+01      -2.147e+01       2.101e-01           0.184           0.066          -0.981       1.971e-02          0.0553
  18       1.692e+01      -2.147e+01       1.626e-01           0.156           0.053          -0.986       2.149e-02         -0.0508
  19       1.662e+01      -2.147e+01       1.289e-01           0.073           0.009          -0.997       2.188e-02         -0.1252
  20       1.633e+01      -2.147e+01       1.166e-01           0.010          -0.027          -1.000       2.118e-02         -0.1416
  21       1.606e+01      -2.147e+01       1.200e-01          -0.036          -0.055          -0.998       1.935e-02         -0.1498
  22       1.581e+01      -2.147e+01       1.341e-01          -0.083          -0.085          -0.993       1.643e-02         -0.1726
  23       1.562e+01      -2.147e+01       1.570e-01          -0.158          -0.134          -0.978       1.265e-02         -0.2229
  24       1.548e+01      -2.147e+01       1.895e-01          -0.329          -0.252          -0.910       8.473e-03         -0.2454
  25       1.541e+01      -2.147e+01       2.354e-01          -0.715          -0.518          -0.469       5.530e-03          0.3198
  26       1.541e+01      -2.147e+01       2.892e-01          -0.715          -0.507           0.482       5.529e-03          0.1798
  27       1.548e+01      -2.147e+01       3.353e-01          -0.331          -0.231           0.915       8.479e-03         -0.4485
  28       1.562e+01      -2.147e+01       3.674e-01          -0.151          -0.106           0.983       1.262e-02         -0.3240
  29       1.581e+01      -2.147e+01       3.895e-01          -0.082          -0.059           0.995       1.642e-02         -0.2241
  30       1.606e+01      -2.147e+01       4.036e-01          -0.037          -0.031           0.999       1.934e-02         -0.1816
  31       1.633e+01      -2.147e+01       4.092e-01          -0.005          -0.011           1.000       2.117e-02         -0.1588
  32       1.662e+01      -2.147e+01       4.056e-01           0.028           0.008           1.000       2.181e-02         -0.1451
  33       1.692e+01      -2.147e+01       3.912e-01           0.071           0.030           0.997       2.123e-02         -0.1214
  34       1.719e+01      -2.147e+01       3.666e-01           0.108           0.048           0.993       1.943e-02         -0.0811
  35       1.744e+01      -2.147e+01       3.373e-01           0.133           0.059           0.989       1.649e-02         -0.0499
  36       1.763e+01      -2.147e+01       3.092e-01           0.153           0.068           0.986       1.255e-02         -0.0454
  37       1.777e+01      -2.147e+01       2.868e-01           0.174           0.076           0.982       7.869e-03         -0.0865
  38       1.784e+01      -2.147e+01       2.706e-01           0.357           0.144           0.923       2.843e-03         -0.0060
Strip 2
  39       1.778e+01      -2.132e+01       2.615e-01           0.026          -0.003          -1.000       8.032e-03          0.0691
  40       1.771e+01      -2.132e+01       2.659e-01          -0.091          -0.047          -0.995       2.373e-02          0.1681
  41       1.757e+01      -2.132e+01       2.680e-01           0.033           0.002          -0.999       3.786e-02          0.2412
  42       1.737e+01      -2.133e+01       2.488e-01           0.143           0.048          -0.989       5.047e-02          0.1995
  43       1.712e+01      -2.133e+01       2.072e-01           0.184           0.066          -0.981       6.020e-02          0.0854
  44       1.684e+01      -2.133e+01       1.588e-01           0.156           0.053          -0.986       6.563e-02         -0.0619
  45       1.655e+01      -2.133e+01       1.244e-01           0.073           0.009          -0.997       6.682e-02         -0.1620
  46       1.625e+01      -2.133e+01       1.119e-01           0.010          -0.027          -1.000       6.471e-02         -0.1828
  47       1.597e+01      -2.133e+01       1.153e-01          -0.036          -0.055          -0.998       5.909e-02         -0.1929
  48       1.572e+01      -2.133e+01       1.297e-01          -0.083          -0.085          -0.993       5.018e-02         -0.2212
  49       1.552e+01      -2.133e+01       1.530e-01          -0.158          -0.134          -0.978       3.863e-02         -0.2666
  50       1.538e+01      -2.133e+01       1.863e-01          -0.329          -0.252          -0.910       2.588e-02         -0.2430
  51       1.531e+01      -2.133e+01       2.331e-01          -0.715          -0.518          -0.469       1.689e-02          0.3942
  52       1.531e+01      -2.132e+01       2.880e-01          -0.715          -0.507           0.481       1.689e-02          0.2156
  53       1.538e+01      -2.132e+01       3.350e-01          -0.331          -0.231           0.915       2.590e-02         -0.5030
  54       1.552e+01      -2.132e+01       3.677e-01          -0.151          -0.106           0.983       3.855e-02         -0.4029
  55       1.572e+01      -2.132e+01       3.903e-01          -0.082          -0.059           0.995       5.014e-02         -0.2903
  56       1.597e+01      -2.132e+01       4.047e-01          -0.037          -0.031           0.999       5.906e-02         -0.2319
  57       1.625e+01      -2.132e+01       4.104e-01          -0.005          -0.011           1.000       6.467e-02         -0.2007
  58       1.655e+01      -2.132e+01       4.068e-01           0.028           0.008           1.000       6.662e-02         -0.1854
  59       1.684e+01      -2.132e+01       3.920e-01           0.071           0.030           0.997       6.483e-02         -0.1600
  60       1.712e+01      -2.132e+01       3.669e-01           0.108           0.048           0.993       5.935e-02         -0.1147
  61       1.737e+01      -2.132e+01       3.370e-01           0.133           0.059           0.989       5.036e-02         -0.0748
  62       1.757e+01      -2.132e+01       3.084e-01           0.153           0.068           0.986       3.835e-02         -0.0527
  63       1.771e+01      -2.132e+01       2.855e-01           0.174           0.076           0.982       2.404e-02         -0.0661
  64       1.778e+01      -2.132e+01       2.690e-01           0.357           0.144           0.923       8.684e-03          0.0266
Strip 3
  65       1.767e+01      -2.103e+01       2.579e-01           0.026          -0.003          -1.000       1.386e-02          0.1102
  66       1.760e+01      -2.103e+01       2.626e-01          -0.091          -0.047          -0.995       4.095e-02          0.2137
  67       1.745e+01      -2.103e+01       2.647e-01           0.033           0.002          -0.999       6.533e-02          0.2835
  68       1.725e+01      -2.103e+01       2.447e-01           0.143           0.048          -0.989       8.707e-02          0.2270
  69       1.699e+01      -2.103e+01       2.015e-01           0.184           0.066          -0.981       1.039e-01          0.0922
  70       1.670e+01      -2.103e+01       1.512e-01           0.156           0.053          -0.986       1.132e-01         -0.0773
  71       1.639e+01      -2.103e+01       1.154e-01           0.073           0.009          -0.997       1.153e-01         -0.1940
  72       1.608e+01      -2.103e+01       1.024e-01           0.010          -0.027          -1.000       1.116e-01         -0.2201
  73       1.578e+01      -2.103e+01       1.059e-01          -0.036          -0.055          -0.998       1.020e-01         -0.2267
  74       1.553e+01      -2.103e+01       1.209e-01          -0.083          -0.085          -0.993       8.659e-02         -0.2384
  75       1.532e+01      -2.103e+01       1.452e-01          -0.158          -0.134          -0.978       6.665e-02         -0.2522
  76       1.517e+01      -2.103e+01       1.797e-01          -0.329          -0.252          -0.910       4.466e-02         -0.1920
  77       1.510e+01      -2.103e+01       2.284e-01          -0.715          -0.518          -0.469       2.915e-02          0.4753
  78       1.510e+01      -2.103e+01       2.855e-01          -0.715          -0.507           0.481       2.913e-02          0.2666
  79       1.517e+01      -2.103e+01       3.344e-01          -0.331          -0.231           0.915       4.468e-02         -0.5005
  80       1.532e+01      -2.103e+01       3.684e-01          -0.151          -0.106           0.983       6.650e-02         -0.4264
  81       1.553e+01      -2.103e+01       3.919e-01          -0.082          -0.059           0.995       8.651e-02         -0.3351
  82       1.578e+01      -2.103e+01       4.069e-01          -0.037          -0.031           0.999       1.019e-01         -0.2836
  83       1.608e+01      -2.103e+01       4.128e-01          -0.005          -0.011           1.000       1.116e-01         -0.2489
  84       1.639e+01      -2.103e+01       4.091e-01           0.028           0.008           1.000       1.149e-01         -0.2290
  85       1.670e+01      -2.103e+01       3.937e-01           0.071           0.030           0.997       1.119e-01         -0.1970
  86       1.699e+01      -2.103e+01       3.676e-01           0.108           0.048           0.993       1.024e-01         -0.1395
  87       1.725e+01      -2.103e+01       3.365e-01           0.133           0.059           0.989       8.689e-02         -0.0825
  88       1.745e+01      -2.103e+01       3.068e-01           0.153           0.068           0.986       6.617e-02         -0.0411
  89       1.760e+01      -2.103e+01       2.830e-01           0.174           0.076           0.982       4.147e-02         -0.0328
  90       1.767e+01      -2.103e+01       2.657e-01           0.357           0.144           0.923       1.499e-02          0.0648
Strip 4
  91       1.751e+01      -2.060e+01       2.527e-01           0.026          -0.003          -1.000       2.037e-02          0.1212
  92       1.743e+01      -2.060e+01       2.575e-01          -0.091          -0.047          -0.995       6.020e-02          0.2252
  93       1.728e+01      -2.060e+01       2.598e-01           0.033           0.002          -0.999       9.604e-02          0.2936
  94       1.706e+01      -2.060e+01       2.387e-01           0.143           0.048          -0.989       1.280e-01          0.2317
  95       1.679e+01      -2.060e+01       1.930e-01           0.184           0.066          -0.981       1.527e-01          0.0885
  96       1.648e+01      -2.060e+01       1.398e-01           0.156           0.053          -0.986       1.665e-01         -0.0907
  97       1.615e+01      -2.060e+01       1.019e-01           0.073           0.009          -0.997       1.695e-01         -0.2133
  98       1.582e+01      -2.060e+01       8.816e-02           0.010          -0.027          -1.000       1.641e-01         -0.2375
  99       1.551e+01      -2.060e+01       9.196e-02          -0.036          -0.055          -0.998       1.499e-01         -0.2347
 100       1.524e+01      -2.060e+01       1.078e-01          -0.083          -0.085          -0.993       1.273e-01         -0.2338
 101       1.502e+01      -2.060e+01       1.334e-01          -0.158          -0.134          -0.978       9.799e-02         -0.2388
 102       1.487e+01      -2.060e+01       1.700e-01          -0.329          -0.252          -0.910       6.567e-02         -0.1703
 103       1.479e+01      -2.060e+01       2.215e-01          -0.715          -0.518          -0.470       4.286e-02          0.4975
 104       1.479e+01      -2.060e+01       2.818e-01          -0.715          -0.507           0.481       4.282e-02          0.2736
 105       1.487e+01      -2.060e+01       3.335e-01          -0.331          -0.232           0.915       6.567e-02         -0.5048
 106       1.502e+01      -2.060e+01       3.695e-01          -0.151          -0.106           0.983       9.776e-02         -0.4343
 107       1.524e+01      -2.060e+01       3.943e-01          -0.082          -0.059           0.995       1.272e-01         -0.3499
 108       1.551e+01      -2.059e+01       4.101e-01          -0.037          -0.031           0.999       1.498e-01         -0.3090
 109       1.582e+01      -2.059e+01       4.164e-01          -0.005          -0.011           1.000       1.640e-01         -0.2812
 110       1.615e+01      -2.059e+01       4.124e-01           0.028           0.008           1.000       1.690e-01         -0.2625
 111       1.648e+01      -2.060e+01       3.962e-01           0.071           0.030           0.997       1.645e-01         -0.2271
 112       1.679e+01      -2.060e+01       3.686e-01           0.108           0.048           0.993       1.506e-01         -0.1626
 113       1.706e+01      -2.060e+01       3.358e-01           0.133           0.059           0.989       1.277e-01         -0.0971
 114       1.728e+01      -2.060e+01       3.043e-01           0.153           0.068           0.986       9.728e-02         -0.0468
 115       1.743e+01      -2.060e+01       2.791e-01           0.174           0.076           0.982       6.098e-02         -0.0293
 116       1.751e+01      -2.060e+01       2.609e-01           0.357           0.144           0.923       2.203e-02          0.0710
Strip 5
 117       1.729e+01      -2.002e+01       2.457e-01           0.026          -0.003          -1.000       2.782e-02          0.1216
 118       1.721e+01      -2.002e+01       2.509e-01          -0.091          -0.047          -0.995       8.220e-02          0.2259
 119       1.704e+01      -2.002e+01       2.534e-01           0.033           0.002          -0.999       1.311e-01          0.2941
 120       1.681e+01      -2.002e+01       2.307e-01           0.143           0.048          -0.989       1.748e-01          0.2304
 121       1.652e+01      -2.002e+01       1.818e-01           0.184           0.066          -0.981       2.084e-01          0.0844
 122       1.619e+01      -2.002e+01       1.247e-01           0.156           0.053          -0.986       2.273e-01         -0.0973
 123       1.583e+01      -2.002e+01       8.413e-02           0.073           0.009          -0.997       2.314e-01         -0.2202
 124       1.548e+01      -2.002e+01       6.939e-02           0.010          -0.027          -1.000       2.241e-01         -0.2411
 125       1.515e+01      -2.002e+01       7.346e-02          -0.036          -0.055          -0.998       2.047e-01         -0.2337
 126       1.486e+01      -2.002e+01       9.040e-02          -0.083          -0.085          -0.993       1.738e-01         -0.2295
 127       1.462e+01      -2.002e+01       1.179e-01          -0.158          -0.134          -0.978       1.338e-01         -0.2326
 128       1.446e+01      -2.002e+01       1.571e-01          -0.329          -0.252          -0.910       8.968e-02         -0.1613
 129       1.437e+01      -2.002e+01       2.122e-01          -0.715          -0.518          -0.470       5.853e-02          0.5055
 130       1.437e+01      -2.002e+01       2.770e-01          -0.716          -0.507           0.480       5.845e-02          0.2744
 131       1.446e+01      -2.002e+01       3.323e-01          -0.331          -0.232           0.915       8.964e-02         -0.5088
 132       1.462e+01      -2.002e+01       3.709e-01          -0.151          -0.106           0.983       1.335e-01         -0.4391
 133       1.486e+01      -2.002e+01       3.975e-01          -0.082          -0.059           0.995       1.736e-01         -0.3563
 134       1.515e+01      -2.002e+01       4.145e-01          -0.037          -0.031           0.999       2.045e-01         -0.3192
 135       1.548e+01      -2.002e+01       4.212e-01          -0.005          -0.011           1.000       2.240e-01         -0.2961
 136       1.583e+01      -2.002e+01       4.169e-01           0.028           0.008           1.000       2.307e-01         -0.2807
 137       1.619e+01      -2.002e+01       3.995e-01           0.071           0.030           0.997       2.245e-01         -0.2456
 138       1.652e+01      -2.002e+01       3.700e-01           0.108           0.048           0.993       2.056e-01         -0.1786
 139       1.681e+01      -2.002e+01       3.347e-01           0.133           0.059           0.989       1.744e-01         -0.1091
 140       1.704e+01      -2.002e+01       3.010e-01           0.153           0.068           0.986       1.328e-01         -0.0545
 141       1.721e+01      -2.002e+01       2.741e-01           0.174           0.076           0.982       8.326e-02         -0.0333
 142       1.729e+01      -2.002e+01       2.545e-01           0.357           0.144           0.923       3.008e-02          0.0682
Strip 6
 143       1.702e+01      -1.931e+01       2.371e-01           0.026          -0.003          -1.000       3.639e-02          0.1198
 144       1.693e+01      -1.931e+01       2.427e-01          -0.091          -0.047          -0.995       1.075e-01          0.2246
 145       1.675e+01      -1.931e+01       2.454e-01           0.033           0.002          -0.999       1.715e-01          0.2932
 146       1.650e+01      -1.931e+01       2.208e-01           0.143           0.048          -0.989       2.286e-01          0.2292
 147       1.618e+01      -1.931e+01       1.679e-01           0.184           0.066          -0.981       2.727e-01          0.0826
 148       1.583e+01      -1.931e+01       1.061e-01           0.156           0.053          -0.986       2.973e-01         -0.0994
 149       1.544e+01      -1.931e+01       6.213e-02           0.073           0.009          -0.997       3.027e-01         -0.2216
 150       1.506e+01      -1.931e+01       4.617e-02           0.010          -0.027          -1.000       2.932e-01         -0.2411
 151       1.470e+01      -1.931e+01       5.057e-02          -0.036          -0.055          -0.998       2.677e-01         -0.2323
 152       1.439e+01      -1.931e+01       6.891e-02          -0.083          -0.085          -0.993       2.274e-01         -0.2275
 153       1.413e+01      -1.931e+01       9.871e-02          -0.158          -0.134          -0.978       1.751e-01         -0.2306
 154       1.396e+01      -1.931e+01       1.411e-01          -0.329          -0.252          -0.910       1.173e-01         -0.1587
 155       1.386e+01      -1.931e+01       2.008e-01          -0.714          -0.518          -0.471       7.659e-02          0.5078
 156       1.386e+01      -1.931e+01       2.709e-01          -0.716          -0.507           0.480       7.645e-02          0.2758
 157       1.396e+01      -1.931e+01       3.308e-01          -0.331          -0.232           0.915       1.172e-01         -0.5096
 158       1.413e+01      -1.931e+01       3.726e-01          -0.151          -0.106           0.983       1.746e-01         -0.4409
 159       1.439e+01      -1.931e+01       4.015e-01          -0.082          -0.059           0.995       2.271e-01         -0.3589
 160       1.470e+01      -1.930e+01       4.198e-01          -0.037          -0.031           0.999       2.675e-01         -0.3233
 161       1.506e+01      -1.930e+01       4.271e-01          -0.005          -0.011           1.000       2.930e-01         -0.3024
 162       1.544e+01      -1.930e+01       4.225e-01           0.028           0.008           1.000       3.018e-01         -0.2889
 163       1.583e+01      -1.931e+01       4.036e-01           0.071           0.030           0.997       2.938e-01         -0.2547
 164       1.618e+01      -1.931e+01       3.716e-01           0.108           0.048           0.993       2.690e-01         -0.1873
 165       1.650e+01      -1.931e+01       3.335e-01           0.133           0.059           0.989       2.282e-01         -0.1164
 166       1.675e+01      -1.931e+01       2.970e-01           0.153           0.068           0.986       1.738e-01         -0.0601
 167       1.693e+01      -1.931e+01       2.678e-01           0.174           0.076           0.982       1.089e-01         -0.0375
 168       1.702e+01      -1.931e+01       2.466e-01           0.357           0.144           0.923       3.936e-02          0.0644
Strip 7
 169       1.671e+01      -1.846e+01       2.268e-01           0.026          -0.003          -1.000       4.625e-02          0.1183
 170       1.661e+01      -1.846e+01       2.330e-01          -0.091          -0.047          -0.995       1.367e-01          0.2236
 171       1.641e+01      -1.846e+01       2.359e-01           0.033           0.002          -0.999       2.180e-01          0.2927
 172       1.613e+01      -1.846e+01       2.091e-01           0.143           0.048          -0.989       2.906e-01          0.2288
 173       1.579e+01      -1.846e+01       1.514e-01           0.184           0.066          -0.981       3.465e-01          0.0821
 174       1.540e+01      -1.846e+01       8.396e-02           0.156           0.053          -0.986       3.778e-01         -0.0999
 175       1.498e+01      -1.846e+01       3.606e-02           0.073           0.009          -0.997       3.848e-01         -0.2219
 176       1.457e+01      -1.846e+01       1.865e-02           0.010          -0.027          -1.000       3.726e-01         -0.2410
 177       1.418e+01      -1.846e+01       2.346e-02          -0.036          -0.055          -0.998       3.403e-01         -0.2320
 178       1.383e+01      -1.846e+01       4.346e-02          -0.083          -0.085          -0.993       2.891e-01         -0.2275
 179       1.356e+01      -1.846e+01       7.595e-02          -0.158          -0.134          -0.978       2.225e-01         -0.2312
 180       1.336e+01      -1.846e+01       1.222e-01          -0.329          -0.252          -0.910       1.492e-01         -0.1603
 181       1.326e+01      -1.846e+01       1.873e-01          -0.714          -0.518          -0.471       9.738e-02          0.5071
 182       1.326e+01      -1.846e+01       2.638e-01          -0.716          -0.507           0.480       9.714e-02          0.2791
 183       1.336e+01      -1.846e+01       3.291e-01          -0.331          -0.232           0.915       1.490e-01         -0.5068
 184       1.356e+01      -1.846e+01       3.747e-01          -0.151          -0.106           0.983       2.219e-01         -0.4402
 185       1.383e+01      -1.846e+01       4.062e-01          -0.082          -0.059           0.995       2.887e-01         -0.3592
 186       1.418e+01      -1.846e+01       4.261e-01          -0.037          -0.031           0.999       3.401e-01         -0.3245
 187       1.457e+01      -1.846e+01       4.341e-01          -0.005          -0.011           1.000       3.724e-01         -0.3046
 188       1.498e+01      -1.846e+01       4.291e-01           0.028           0.008           1.000       3.837e-01         -0.2922
 189       1.540e+01      -1.846e+01       4.085e-01           0.071           0.030           0.997       3.734e-01         -0.2586
 190       1.579e+01      -1.846e+01       3.736e-01           0.108           0.048           0.993       3.419e-01         -0.1912
 191       1.613e+01      -1.846e+01       3.320e-01           0.133           0.059           0.989       2.901e-01         -0.1200
 192       1.641e+01      -1.846e+01       2.922e-01           0.153           0.068           0.986       2.209e-01         -0.0632
 193       1.661e+01      -1.846e+01       2.603e-01           0.174           0.076           0.982       1.385e-01         -0.0401
 194       1.671e+01      -1.846e+01       2.373e-01           0.357           0.144           0.923       5.004e-02          0.0618
Strip 8
 195       1.634e+01      -1.749e+01       2.151e-01           0.026          -0.003          -1.000       5.751e-02          0.1176
 196       1.623e+01      -1.749e+01       2.219e-01          -0.091          -0.047          -0.995       1.700e-01          0.2232
 197       1.602e+01      -1.749e+01       2.250e-01           0.033           0.002          -0.999       2.711e-01          0.2925
 198       1.572e+01      -1.749e+01       1.957e-01           0.143           0.048          -0.989       3.613e-01          0.2287
 199       1.534e+01      -1.749e+01       1.324e-01           0.184           0.066          -0.981       4.309e-01          0.0819
 200       1.491e+01      -1.749e+01       5.858e-02           0.156           0.053          -0.986       4.698e-01         -0.1003
 201       1.445e+01      -1.749e+01       6.104e-03           0.073           0.009          -0.997       4.784e-01         -0.2224
 202       1.400e+01      -1.749e+01      -1.297e-02           0.010          -0.027          -1.000       4.634e-01         -0.2416
 203       1.357e+01      -1.749e+01      -7.704e-03          -0.036          -0.055          -0.998       4.232e-01         -0.2328
 204       1.319e+01      -1.749e+01       1.420e-02          -0.083          -0.085          -0.993       3.595e-01         -0.2288
 205       1.289e+01      -1.749e+01       4.980e-02          -0.158          -0.134          -0.978       2.768e-01         -0.2336
 206       1.268e+01      -1.749e+01       1.004e-01          -0.329          -0.252          -0.910       1.856e-01         -0.1647
 207       1.257e+01      -1.749e+01       1.718e-01          -0.714          -0.518          -0.471       1.211e-01          0.5044
 208       1.257e+01      -1.749e+01       2.555e-01          -0.716          -0.508           0.479       1.208e-01          0.2842
 209       1.268e+01      -1.749e+01       3.271e-01          -0.332          -0.232           0.915       1.852e-01         -0.5011
 210       1.289e+01      -1.749e+01       3.771e-01          -0.151          -0.106           0.983       2.759e-01         -0.4373
 211       1.319e+01      -1.749e+01       4.115e-01          -0.082          -0.059           0.995       3.590e-01         -0.3578
 212       1.357e+01      -1.749e+01       4.334e-01          -0.037          -0.031           0.999       4.229e-01         -0.3240
 213       1.400e+01      -1.749e+01       4.421e-01          -0.005          -0.011           1.000       4.631e-01         -0.3049
 214       1.445e+01      -1.749e+01       4.366e-01           0.028           0.008           1.000       4.771e-01         -0.2930
 215       1.491e+01      -1.749e+01       4.141e-01           0.071           0.030           0.997       4.644e-01         -0.2599
 216       1.534e+01      -1.749e+01       3.758e-01           0.108           0.048           0.993       4.252e-01         -0.1928
 217       1.572e+01      -1.749e+01       3.303e-01           0.133           0.059           0.989       3.607e-01         -0.1215
 218       1.602e+01      -1.749e+01       2.867e-01           0.153           0.068           0.986       2.747e-01         -0.0646
 219       1.623e+01      -1.749e+01       2.518e-01           0.174           0.076           0.982       1.722e-01         -0.0414
 220       1.634e+01      -1.749e+01       2.265e-01           0.357           0.144           0.923       6.223e-02          0.0604
Strip 9
 221       1.593e+01      -1.640e+01       2.019e-01           0.026          -0.003          -1.000       7.023e-02          0.1171
 222       1.581e+01      -1.640e+01       2.093e-01          -0.091          -0.047          -0.995       2.076e-01          0.2229
 223       1.558e+01      -1.640e+01       2.128e-01           0.033           0.002          -0.999       3.311e-01          0.2925
 224       1.524e+01      -1.640e+01       1.806e-01           0.143           0.048          -0.989       4.411e-01          0.2286
 225       1.483e+01      -1.640e+01       1.111e-01           0.184           0.066          -0.981       5.261e-01          0.0817
 226       1.436e+01      -1.640e+01       3.007e-02           0.156           0.053          -0.986       5.736e-01         -0.1008
 227       1.386e+01      -1.640e+01      -2.754e-02           0.073           0.009          -0.997       5.842e-01         -0.2232
 228       1.336e+01      -1.640e+01      -4.848e-02           0.010          -0.027          -1.000       5.658e-01         -0.2426
 229       1.289e+01      -1.640e+01      -4.270e-02          -0.036          -0.055          -0.998       5.168e-01         -0.2343
 230       1.248e+01      -1.640e+01      -1.865e-02          -0.083          -0.085          -0.993       4.390e-01         -0.2311
 231       1.214e+01      -1.640e+01       2.044e-02          -0.158          -0.134          -0.978       3.380e-01         -0.2372
 232       1.191e+01      -1.640e+01       7.603e-02          -0.329          -0.252          -0.910       2.266e-01         -0.1710
 233       1.179e+01      -1.640e+01       1.544e-01          -0.714          -0.518          -0.472       1.479e-01          0.5005
 234       1.179e+01      -1.640e+01       2.463e-01          -0.716          -0.508           0.479       1.474e-01          0.2908
 235       1.191e+01      -1.640e+01       3.249e-01          -0.332          -0.232           0.915       2.261e-01         -0.4930
 236       1.214e+01      -1.640e+01       3.797e-01          -0.151          -0.106           0.983       3.368e-01         -0.4329
 237       1.248e+01      -1.640e+01       4.176e-01          -0.082          -0.059           0.995       4.383e-01         -0.3552
 238       1.289e+01      -1.640e+01       4.416e-01          -0.037          -0.031           0.999       5.163e-01         -0.3223
 239       1.336e+01      -1.640e+01       4.511e-01          -0.005          -0.011           1.000       5.655e-01         -0.3039
 240       1.386e+01      -1.640e+01       4.451e-01           0.028           0.008           1.000       5.826e-01         -0.2927
 241       1.436e+01      -1.640e+01       4.204e-01           0.071           0.030           0.997       5.670e-01         -0.2599
 242       1.483e+01      -1.640e+01       3.784e-01           0.108           0.048           0.993       5.192e-01         -0.1931
 243       1.524e+01      -1.640e+01       3.284e-01           0.133           0.059           0.989       4.405e-01         -0.1219
 244       1.558e+01      -1.640e+01       2.805e-01           0.153           0.068           0.986       3.355e-01         -0.0651
 245       1.581e+01      -1.640e+01       2.422e-01           0.174           0.076           0.982       2.103e-01         -0.0420
 246       1.593e+01      -1.640e+01       2.145e-01           0.357           0.144           0.923       7.600e-02          0.0597
Strip 10
 247       1.548e+01      -1.520e+01       1.873e-01           0.026          -0.003          -1.000       8.439e-02          0.1169
 248       1.535e+01      -1.520e+01       1.955e-01          -0.091          -0.047          -0.995       2.494e-01          0.2228
 249       1.509e+01      -1.520e+01       1.993e-01           0.033           0.002          -0.999       3.978e-01          0.2924
 250       1.472e+01      -1.520e+01       1.640e-01           0.143           0.048          -0.989       5.300e-01          0.2285
 251       1.427e+01      -1.520e+01       8.767e-02           0.184           0.066          -0.981       6.321e-01          0.0813
 252       1.375e+01      -1.520e+01      -1.365e-03           0.156           0.053          -0.986       6.892e-01         -0.1015
 253       1.320e+01      -1.520e+01      -6.464e-02           0.073           0.009          -0.997       7.019e-01         -0.2243
 254       1.266e+01      -1.520e+01      -8.764e-02           0.010          -0.027          -1.000       6.799e-01         -0.2442
 255       1.214e+01      -1.520e+01      -8.129e-02          -0.036          -0.055          -0.998       6.210e-01         -0.2363
 256       1.168e+01      -1.520e+01      -5.487e-02          -0.083          -0.085          -0.993       5.275e-01         -0.2339
 257       1.132e+01      -1.520e+01      -1.195e-02          -0.158          -0.134          -0.978       4.062e-01         -0.2417
 258       1.106e+01      -1.520e+01       4.911e-02          -0.329          -0.252          -0.910       2.724e-01         -0.1789
 259       1.093e+01      -1.520e+01       1.352e-01          -0.714          -0.517          -0.472       1.778e-01          0.4955
 260       1.093e+01      -1.520e+01       2.361e-01          -0.716          -0.508           0.479       1.771e-01          0.2985
 261       1.106e+01      -1.520e+01       3.224e-01          -0.332          -0.232           0.914       2.717e-01         -0.4831
 262       1.132e+01      -1.519e+01       3.827e-01          -0.151          -0.106           0.983       4.047e-01         -0.4274
 263       1.168e+01      -1.519e+01       4.242e-01          -0.082          -0.059           0.995       5.266e-01         -0.3517
 264       1.214e+01      -1.519e+01       4.506e-01          -0.037          -0.031           0.999       6.204e-01         -0.3199
 265       1.266e+01      -1.519e+01       4.611e-01          -0.005          -0.011           1.000       6.795e-01         -0.3023
 266       1.320e+01      -1.519e+01       4.545e-01           0.028           0.008           1.000       7.000e-01         -0.2915
 267       1.375e+01      -1.519e+01       4.273e-01           0.071           0.030           0.997       6.814e-01         -0.2593
 268       1.427e+01      -1.519e+01       3.812e-01           0.108           0.048           0.993       6.239e-01         -0.1927
 269       1.472e+01      -1.520e+01       3.263e-01           0.133           0.059           0.989       5.293e-01         -0.1218
 270       1.509e+01      -1.520e+01       2.736e-01           0.153           0.068           0.986       4.031e-01         -0.0652
 271       1.535e+01      -1.520e+01       2.316e-01           0.174           0.076           0.982       2.527e-01         -0.0421
 272       1.548e+01      -1.520e+01       2.012e-01           0.357           0.144           0.923       9.133e-02          0.0594
Strip 11
 273       1.499e+01      -1.389e+01       1.715e-01           0.026          -0.003          -1.000       9.992e-02          0.1167
 274       1.484e+01      -1.389e+01       1.805e-01          -0.091          -0.047          -0.995       2.954e-01          0.2226
 275       1.456e+01      -1.389e+01       1.847e-01           0.033           0.002          -0.999       4.710e-01          0.2922
 276       1.416e+01      -1.389e+01       1.459e-01           0.143           0.048          -0.989       6.276e-01          0.2283
 277       1.366e+01      -1.389e+01       6.218e-02           0.184           0.066          -0.981       7.484e-01          0.0809
 278       1.309e+01      -1.389e+01      -3.551e-02           0.156           0.053          -0.986       8.161e-01         -0.1025
 279       1.249e+01      -1.389e+01      -1.049e-01           0.073           0.009          -0.997       8.311e-01         -0.2258
 280       1.189e+01      -1.389e+01      -1.302e-01           0.010          -0.027          -1.000       8.050e-01         -0.2461
 281       1.132e+01      -1.389e+01      -1.232e-01          -0.036          -0.055          -0.998       7.353e-01         -0.2387
 282       1.082e+01      -1.389e+01      -9.422e-02          -0.083          -0.085          -0.993       6.246e-01         -0.2372
 283       1.042e+01      -1.389e+01      -4.712e-02          -0.157          -0.134          -0.978       4.810e-01         -0.2469
 284       1.014e+01      -1.389e+01       1.987e-02          -0.329          -0.252          -0.910       3.225e-01         -0.1879
 285       9.994e+00      -1.389e+01       1.143e-01          -0.714          -0.517          -0.472       2.106e-01          0.4898
 286       9.994e+00      -1.389e+01       2.251e-01          -0.716          -0.508           0.478       2.097e-01          0.3070
 287       1.014e+01      -1.389e+01       3.198e-01          -0.332          -0.232           0.914       3.216e-01         -0.4719
 288       1.042e+01      -1.389e+01       3.859e-01          -0.151          -0.106           0.983       4.792e-01         -0.4209
 289       1.082e+01      -1.389e+01       4.314e-01          -0.082          -0.059           0.995       6.235e-01         -0.3475
 290       1.132e+01      -1.389e+01       4.604e-01          -0.037          -0.031           0.999       7.346e-01         -0.3170
 291       1.189e+01      -1.389e+01       4.719e-01          -0.005          -0.011           1.000       8.046e-01         -0.3001
 292       1.249e+01      -1.389e+01       4.646e-01           0.028           0.008           1.000       8.289e-01         -0.2900
 293       1.309e+01      -1.389e+01       4.348e-01           0.071           0.030           0.997       8.068e-01         -0.2582
 294       1.366e+01      -1.389e+01       3.842e-01           0.108           0.048           0.993       7.387e-01         -0.1920
 295       1.416e+01      -1.389e+01       3.240e-01           0.133           0.059           0.989       6.268e-01         -0.1215
 296       1.456e+01      -1.389e+01       2.662e-01           0.153           0.068           0.986       4.773e-01         -0.0651
 297       1.484e+01      -1.389e+01       2.201e-01           0.174           0.076           0.982       2.992e-01         -0.0422
 298       1.499e+01      -1.389e+01       1.867e-01           0.357           0.144           0.923       1.082e-01          0.0591
Strip 12
 299       1.446e+01      -1.249e+01       1.546e-01           0.026          -0.003          -1.000       1.167e-01          0.1165
 300       1.430e+01      -1.249e+01       1.644e-01          -0.091          -0.047          -0.995       3.449e-01          0.2224
 301       1.399e+01      -1.249e+01       1.690e-01           0.033           0.002          -0.999       5.501e-01          0.2920
 302       1.355e+01      -1.249e+01       1.265e-01           0.143           0.048          -0.989       7.329e-01          0.2279
 303       1.301e+01      -1.249e+01       3.484e-02           0.184           0.066          -0.981       8.740e-01          0.0803
 304       1.239e+01      -1.249e+01      -7.214e-02           0.156           0.053          -0.986       9.530e-01         -0.1036
 305       1.173e+01      -1.249e+01      -1.482e-01           0.073           0.009          -0.997       9.706e-01         -0.2274
 306       1.107e+01      -1.249e+01      -1.758e-01           0.010          -0.027          -1.000       9.401e-01         -0.2482
 307       1.045e+01      -1.249e+01      -1.682e-01          -0.036          -0.055          -0.998       8.588e-01         -0.2415
 308       9.901e+00      -1.249e+01      -1.364e-01          -0.083          -0.085          -0.993       7.295e-01         -0.2409
 309       9.460e+00      -1.249e+01      -8.485e-02          -0.157          -0.134          -0.978       5.618e-01         -0.2524
 310       9.152e+00      -1.249e+01      -1.150e-02          -0.329          -0.252          -0.910       3.767e-01         -0.1977
 311       8.993e+00      -1.249e+01       9.193e-02          -0.713          -0.517          -0.473       2.460e-01          0.4833
 312       8.993e+00      -1.249e+01       2.132e-01          -0.717          -0.508           0.478       2.449e-01          0.3161
 313       9.152e+00      -1.249e+01       3.169e-01          -0.332          -0.232           0.914       3.756e-01         -0.4595
 314       9.460e+00      -1.249e+01       3.893e-01          -0.152          -0.106           0.983       5.596e-01         -0.4136
 315       9.901e+00      -1.249e+01       4.392e-01          -0.082          -0.059           0.995       7.282e-01         -0.3428
 316       1.045e+01      -1.249e+01       4.709e-01          -0.037          -0.031           0.999       8.579e-01         -0.3137
 317       1.107e+01      -1.249e+01       4.835e-01          -0.005          -0.011           1.000       9.396e-01         -0.2976
 318       1.173e+01      -1.249e+01       4.755e-01           0.028           0.008           1.000       9.681e-01         -0.2881
 319       1.239e+01      -1.249e+01       4.429e-01           0.071           0.030           0.997       9.423e-01         -0.2568
 320       1.301e+01      -1.249e+01       3.875e-01           0.108           0.048           0.993       8.628e-01         -0.1912
 321       1.355e+01      -1.249e+01       3.215e-01           0.133           0.059           0.989       7.321e-01         -0.1210
 322       1.399e+01      -1.249e+01       2.583e-01           0.153           0.068           0.986       5.575e-01         -0.0648
 323       1.430e+01      -1.249e+01       2.078e-01           0.174           0.076           0.982       3.494e-01         -0.0421
 324       1.446e+01      -1.249e+01       1.712e-01           0.357           0.144           0.923       1.263e-01          0.0590
Strip 13
 325       1.390e+01      -1.100e+01       1.366e-01           0.026          -0.003          -1.000       1.345e-01          0.1162
 326       1.373e+01      -1.100e+01       1.473e-01          -0.091          -0.047          -0.995       3.976e-01          0.2221
 327       1.339e+01      -1.100e+01       1.523e-01           0.033           0.002          -0.999       6.341e-01          0.2917
 328       1.291e+01      -1.100e+01       1.060e-01           0.143           0.048          -0.989       8.448e-01          0.2275
 329       1.231e+01      -1.100e+01       5.834e-03           0.184           0.066          -0.981       1.007e+00          0.0795
 330       1.164e+01      -1.100e+01      -1.110e-01           0.156           0.053          -0.986       1.098e+00         -0.1049
 331       1.092e+01      -1.100e+01      -1.940e-01           0.073           0.009          -0.997       1.119e+00         -0.2293
 332       1.020e+01      -1.100e+01      -2.242e-01           0.010          -0.027          -1.000       1.084e+00         -0.2506
 333       9.519e+00      -1.100e+01      -2.159e-01          -0.036          -0.055          -0.998       9.899e-01         -0.2445
 334       8.922e+00      -1.100e+01      -1.812e-01          -0.083          -0.085          -0.993       8.409e-01         -0.2449
 335       8.441e+00      -1.100e+01      -1.249e-01          -0.157          -0.134          -0.978       6.476e-01         -0.2583
 336       8.104e+00      -1.100e+01      -4.477e-02          -0.329          -0.252          -0.910       4.343e-01         -0.2083
 337       7.931e+00      -1.100e+01       6.818e-02          -0.713          -0.517          -0.473       2.836e-01          0.4763
 338       7.931e+00      -1.100e+01       2.006e-01          -0.717          -0.508           0.478       2.822e-01          0.3257
 339       8.104e+00      -1.100e+01       3.139e-01          -0.332          -0.232           0.914       4.329e-01         -0.4460
 340       8.441e+00      -1.100e+01       3.929e-01          -0.152          -0.106           0.983       6.450e-01         -0.4056
 341       8.922e+00      -1.100e+01       4.474e-01          -0.082          -0.059           0.995       8.394e-01         -0.3376
 342       9.519e+00      -1.100e+01       4.820e-01          -0.037          -0.031           0.999       9.889e-01         -0.3099
 343       1.020e+01      -1.100e+01       4.958e-01          -0.005          -0.011           1.000       1.083e+00         -0.2948
 344       1.092e+01      -1.100e+01       4.871e-01           0.028           0.008           1.000       1.116e+00         -0.2860
 345       1.164e+01      -1.100e+01       4.515e-01           0.071           0.030           0.997       1.086e+00         -0.2553
 346       1.231e+01      -1.100e+01       3.909e-01           0.108           0.048           0.993       9.946e-01         -0.1902
 347       1.291e+01      -1.100e+01       3.189e-01           0.133           0.059           0.989       8.439e-01         -0.1204
 348       1.339e+01      -1.100e+01       2.499e-01           0.153           0.068           0.986       6.426e-01         -0.0646
 349       1.373e+01      -1.100e+01       1.947e-01           0.174           0.076           0.982       4.028e-01         -0.0421
 350       1.390e+01      -1.100e+01       1.547e-01           0.357           0.144           0.923       1.456e-01          0.0587
Strip 14
 351       1.332e+01      -9.438e+00       1.177e-01           0.026          -0.003          -1.000       1.531e-01          0.1157
 352       1.313e+01      -9.438e+00       1.294e-01          -0.091          -0.047          -0.995       4.527e-01          0.2217
 353       1.276e+01      -9.438e+00       1.348e-01           0.033           0.002          -0.999       7.218e-01          0.2913
 354       1.224e+01      -9.438e+00       8.435e-02           0.143           0.048          -0.989       9.617e-01          0.2270
 355       1.159e+01      -9.439e+00      -2.464e-02           0.184           0.066          -0.981       1.147e+00          0.0785
 356       1.085e+01      -9.439e+00      -1.518e-01           0.156           0.053          -0.986       1.250e+00         -0.1065
 357       1.007e+01      -9.439e+00      -2.422e-01           0.073           0.009          -0.997       1.274e+00         -0.2315
 358       9.282e+00      -9.439e+00      -2.750e-01           0.010          -0.027          -1.000       1.234e+00         -0.2532
 359       8.543e+00      -9.439e+00      -2.660e-01          -0.036          -0.055          -0.998       1.127e+00         -0.2477
 360       7.894e+00      -9.439e+00      -2.282e-01          -0.083          -0.085          -0.993       9.573e-01         -0.2490
 361       7.370e+00      -9.439e+00      -1.669e-01          -0.157          -0.134          -0.978       7.373e-01         -0.2644
 362       7.003e+00      -9.439e+00      -7.972e-02          -0.329          -0.252          -0.910       4.945e-01         -0.2193
 363       6.815e+00      -9.438e+00       4.323e-02          -0.713          -0.517          -0.473       3.228e-01          0.4686
 364       6.815e+00      -9.438e+00       1.874e-01          -0.717          -0.508           0.478       3.212e-01          0.3358
 365       7.003e+00      -9.438e+00       3.107e-01          -0.332          -0.232           0.914       4.927e-01         -0.4313
 366       7.370e+00      -9.438e+00       3.967e-01          -0.152          -0.106           0.983       7.342e-01         -0.3967
 367       7.894e+00      -9.438e+00       4.560e-01          -0.082          -0.059           0.995       9.555e-01         -0.3317
 368       8.543e+00      -9.438e+00       4.937e-01          -0.037          -0.031           0.999       1.126e+00         -0.3057
 369       9.282e+00      -9.438e+00       5.087e-01          -0.005          -0.011           1.000       1.233e+00         -0.2918
 370       1.007e+01      -9.438e+00       4.993e-01           0.028           0.008           1.000       1.270e+00         -0.2837
 371       1.085e+01      -9.438e+00       4.605e-01           0.071           0.030           0.997       1.237e+00         -0.2537
 372       1.159e+01      -9.438e+00       3.946e-01           0.108           0.048           0.993       1.132e+00         -0.1892
 373       1.224e+01      -9.438e+00       3.161e-01           0.133           0.059           0.989       9.607e-01         -0.1199
 374       1.276e+01      -9.438e+00       2.410e-01           0.153           0.068           0.986       7.316e-01         -0.0644
 375       1.313e+01      -9.438e+00       1.810e-01           0.174           0.076           0.982       4.586e-01         -0.0422
 376       1.332e+01      -9.438e+00       1.375e-01           0.357           0.144           0.923       1.658e-01          0.0583
Strip 15
 377       1.270e+01      -7.812e+00       9.805e-02           0.026          -0.003          -1.000       1.722e-01          0.1150
 378       1.250e+01      -7.812e+00       1.107e-01          -0.091          -0.047          -0.995       5.092e-01          0.2211
 379       1.210e+01      -7.812e+00       1.166e-01           0.033           0.002          -0.999       8.119e-01          0.2907
 380       1.153e+01      -7.812e+00       6.185e-02           0.143           0.048          -0.989       1.082e+00          0.2261
 381       1.083e+01      -7.812e+00      -5.637e-02           0.184           0.066          -0.981       1.290e+00          0.0772
 382       1.003e+01      -7.812e+00      -1.943e-01           0.156           0.053          -0.986       1.406e+00         -0.1085
 383       9.178e+00      -7.812e+00      -2.923e-01           0.073           0.009          -0.997       1.433e+00         -0.2341
 384       8.328e+00      -7.812e+00      -3.280e-01           0.010          -0.027          -1.000       1.388e+00         -0.2562
 385       7.528e+00      -7.812e+00      -3.181e-01          -0.036          -0.055          -0.998       1.268e+00         -0.2511
 386       6.823e+00      -7.812e+00      -2.772e-01          -0.083          -0.085          -0.993       1.077e+00         -0.2531
 387       6.255e+00      -7.812e+00      -2.107e-01          -0.157          -0.134          -0.978       8.293e-01         -0.2704
 388       5.857e+00      -7.812e+00      -1.161e-01          -0.329          -0.252          -0.910       5.563e-01         -0.2303
 389       5.652e+00      -7.812e+00       1.725e-02          -0.713          -0.517          -0.473       3.632e-01          0.4605
 390       5.652e+00      -7.812e+00       1.736e-01          -0.717          -0.508           0.477       3.613e-01          0.3462
 391       5.857e+00      -7.811e+00       3.074e-01          -0.332          -0.232           0.914       5.542e-01         -0.4151
 392       6.255e+00      -7.811e+00       4.007e-01          -0.152          -0.106           0.983       8.258e-01         -0.3868
 393       6.823e+00      -7.811e+00       4.650e-01          -0.082          -0.059           0.995       1.075e+00         -0.3251
 394       7.528e+00      -7.811e+00       5.059e-01          -0.037          -0.031           0.999       1.266e+00         -0.3011
 395       8.328e+00      -7.811e+00       5.222e-01          -0.005          -0.011           1.000       1.387e+00         -0.2884
 396       9.178e+00      -7.811e+00       5.119e-01           0.028           0.008           1.000       1.429e+00         -0.2813
 397       1.003e+01      -7.811e+00       4.698e-01           0.071           0.030           0.997       1.391e+00         -0.2522
 398       1.083e+01      -7.811e+00       3.984e-01           0.108           0.048           0.993       1.274e+00         -0.1884
 399       1.153e+01      -7.811e+00       3.133e-01           0.133           0.059           0.989       1.081e+00         -0.1195
 400       1.210e+01      -7.812e+00       2.318e-01           0.153           0.068           0.986       8.229e-01         -0.0644
 401       1.250e+01      -7.812e+00       1.666e-01           0.174           0.076           0.982       5.159e-01         -0.0426
 402       1.270e+01      -7.812e+00       1.195e-01           0.357           0.144           0.923       1.865e-01          0.0576
Strip 16
 403       1.207e+01      -6.132e+00       7.774e-02           0.026          -0.003          -1.000       1.915e-01          0.1139
 404       1.185e+01      -6.132e+00       9.143e-02          -0.091          -0.047          -0.995       5.661e-01          0.2200
 405       1.142e+01      -6.132e+00       9.780e-02           0.033           0.002          -0.999       9.027e-01          0.2897
 406       1.081e+01      -6.132e+00       3.861e-02           0.143           0.048          -0.989       1.203e+00          0.2248
 407       1.005e+01      -6.132e+00      -8.914e-02           0.184           0.066          -0.981       1.434e+00          0.0752
 408       9.181e+00      -6.132e+00      -2.382e-01           0.156           0.053          -0.986       1.564e+00         -0.1114
 409       8.263e+00      -6.132e+00      -3.442e-01           0.073           0.009          -0.997       1.593e+00         -0.2375
 410       7.344e+00      -6.132e+00      -3.827e-01           0.010          -0.027          -1.000       1.543e+00         -0.2597
 411       6.479e+00      -6.132e+00      -3.720e-01          -0.036          -0.055          -0.998       1.409e+00         -0.2545
 412       5.717e+00      -6.132e+00      -3.278e-01          -0.083          -0.085          -0.993       1.197e+00         -0.2567
 413       5.104e+00      -6.132e+00      -2.559e-01          -0.157          -0.134          -0.978       9.221e-01         -0.2752
 414       4.674e+00      -6.132e+00      -1.537e-01          -0.329          -0.252          -0.910       6.185e-01         -0.2401
 415       4.452e+00      -6.132e+00      -9.584e-03          -0.713          -0.517          -0.473       4.038e-01          0.4523
 416       4.452e+00      -6.132e+00       1.594e-01          -0.717          -0.508           0.477       4.016e-01          0.3572
 417       4.674e+00      -6.132e+00       3.039e-01          -0.332          -0.232           0.914       6.161e-01         -0.3966
 418       5.104e+00      -6.132e+00       4.048e-01          -0.152          -0.106           0.983       9.181e-01         -0.3746
 419       5.717e+00      -6.131e+00       4.743e-01          -0.082          -0.059           0.995       1.195e+00         -0.3169
 420       6.479e+00      -6.131e+00       5.185e-01          -0.037          -0.031           0.999       1.408e+00         -0.2954
 421       7.344e+00      -6.131e+00       5.361e-01          -0.005          -0.011           1.000       1.542e+00         -0.2845
 422       8.263e+00      -6.131e+00       5.250e-01           0.028           0.008           1.000       1.589e+00         -0.2788
 423       9.181e+00      -6.131e+00       4.795e-01           0.071           0.030           0.997       1.546e+00         -0.2509
 424       1.005e+01      -6.132e+00       4.023e-01           0.108           0.048           0.993       1.416e+00         -0.1880
 425       1.081e+01      -6.132e+00       3.103e-01           0.133           0.059           0.989       1.201e+00         -0.1197
 426       1.142e+01      -6.132e+00       2.222e-01           0.153           0.068           0.986       9.150e-01         -0.0649
 427       1.185e+01      -6.132e+00       1.519e-01           0.174           0.076           0.982       5.735e-01         -0.0434
 428       1.207e+01      -6.132e+00       1.009e-01           0.357           0.144           0.923       2.073e-01          0.0564
Strip 17
 429       1.143e+01      -4.410e+00       5.692e-02           0.026          -0.003          -1.000       2.105e-01          0.1120
 430       1.119e+01      -4.410e+00       7.166e-02          -0.091          -0.047          -0.995       6.223e-01          0.2183
 431       1.072e+01      -4.410e+00       7.851e-02           0.033           0.002          -0.999       9.923e-01          0.2879
 432       1.006e+01      -4.410e+00       1.480e-02           0.143           0.048          -0.989       1.322e+00          0.2224
 433       9.244e+00      -4.410e+00      -1.227e-01           0.184           0.066          -0.981       1.576e+00          0.0715
 434       8.313e+00      -4.410e+00      -2.832e-01           0.156           0.053          -0.986       1.719e+00         -0.1164
 435       7.324e+00      -4.410e+00      -3.972e-01           0.073           0.009          -0.997       1.751e+00         -0.2427
 436       6.335e+00      -4.410e+00      -4.387e-01           0.010          -0.027          -1.000       1.696e+00         -0.2637
 437       5.404e+00      -4.410e+00      -4.273e-01          -0.036          -0.055          -0.998       1.549e+00         -0.2569
 438       4.584e+00      -4.410e+00      -3.796e-01          -0.083          -0.085          -0.993       1.316e+00         -0.2577
 439       3.924e+00      -4.410e+00      -3.023e-01          -0.157          -0.134          -0.978       1.014e+00         -0.2761
 440       3.461e+00      -4.410e+00      -1.922e-01          -0.328          -0.252          -0.910       6.800e-01         -0.2451
 441       3.222e+00      -4.410e+00      -3.709e-02          -0.713          -0.517          -0.474       4.439e-01          0.4459
 442       3.222e+00      -4.410e+00       1.448e-01          -0.717          -0.508           0.477       4.415e-01          0.3696
 443       3.461e+00      -4.410e+00       3.004e-01          -0.332          -0.232           0.914       6.772e-01         -0.3732
 444       3.924e+00      -4.410e+00       4.090e-01          -0.152          -0.106           0.983       1.009e+00         -0.3579
 445       4.584e+00      -4.410e+00       4.838e-01          -0.082          -0.059           0.995       1.313e+00         -0.3053
 446       5.404e+00      -4.410e+00       5.314e-01          -0.037          -0.031           0.999       1.548e+00         -0.2874
 447       6.335e+00      -4.410e+00       5.503e-01          -0.005          -0.011           1.000       1.695e+00         -0.2796
 448       7.324e+00      -4.410e+00       5.384e-01           0.028           0.008           1.000       1.746e+00         -0.2765
 449       8.313e+00      -4.410e+00       4.894e-01           0.071           0.030           0.997       1.700e+00         -0.2506
 450       9.244e+00      -4.410e+00       4.063e-01           0.108           0.048           0.993       1.557e+00         -0.1890
 451       1.006e+01      -4.410e+00       3.073e-01           0.133           0.059           0.989       1.321e+00         -0.1212
 452       1.072e+01      -4.410e+00       2.125e-01           0.153           0.068           0.986       1.006e+00         -0.0664
 453       1.119e+01      -4.410e+00       1.367e-01           0.174           0.076           0.982       6.305e-01         -0.0453
 454       1.143e+01      -4.410e+00       8.182e-02           0.357           0.144           0.923       2.279e-01          0.0542
Strip 18
 455       1.077e+01      -2.658e+00       3.573e-02           0.026          -0.003          -1.000       2.289e-01          0.1087
 456       1.051e+01      -2.658e+00       5.154e-02          -0.091          -0.047          -0.995       6.766e-01          0.2153
 457       1.002e+01      -2.658e+00       5.889e-02           0.033           0.002          -0.999       1.079e+00          0.2845
 458       9.307e+00      -2.658e+00      -9.432e-03           0.143           0.048          -0.989       1.437e+00          0.2170
 459       8.428e+00      -2.658e+00      -1.569e-01           0.184           0.066          -0.981       1.714e+00          0.0629
 460       7.429e+00      -2.658e+00      -3.290e-01           0.156           0.053          -0.986       1.869e+00         -0.1272
 461       6.369e+00      -2.658e+00      -4.513e-01           0.073           0.009          -0.997       1.903e+00         -0.2515
 462       5.309e+00      -2.658e+00      -4.957e-01           0.010          -0.027          -1.000       1.844e+00         -0.2670
 463       4.310e+00      -2.658e+00      -4.835e-01          -0.036          -0.055          -0.998       1.684e+00         -0.2540
 464       3.431e+00      -2.658e+00      -4.324e-01          -0.083          -0.085          -0.993       1.431e+00         -0.2495
 465       2.723e+00      -2.658e+00      -3.494e-01          -0.157          -0.134          -0.978       1.102e+00         -0.2646
 466       2.226e+00      -2.658e+00      -2.314e-01          -0.328          -0.252          -0.910       7.393e-01         -0.2357
 467       1.971e+00      -2.658e+00      -6.507e-02          -0.713          -0.517          -0.474       4.827e-01          0.4477
 468       1.971e+00      -2.658e+00       1.300e-01          -0.717          -0.508           0.477       4.799e-01          0.3890
 469       2.226e+00      -2.658e+00       2.968e-01          -0.332          -0.232           0.914       7.362e-01         -0.3370
 470       2.723e+00      -2.658e+00       4.132e-01          -0.152          -0.106           0.983       1.097e+00         -0.3298
 471       3.431e+00      -2.658e+00       4.935e-01          -0.082          -0.059           0.995       1.428e+00         -0.2848
 472       4.310e+00      -2.658e+00       5.445e-01          -0.037          -0.031           0.999       1.683e+00         -0.2733
 473       5.309e+00      -2.658e+00       5.648e-01          -0.005          -0.011           1.000       1.843e+00         -0.2718
 474       6.369e+00      -2.658e+00       5.520e-01           0.028           0.008           1.000       1.899e+00         -0.2744
 475       7.429e+00      -2.658e+00       4.995e-01           0.071           0.030           0.997       1.848e+00         -0.2529
 476       8.428e+00      -2.658e+00       4.104e-01           0.108           0.048           0.993       1.692e+00         -0.1938
 477       9.307e+00      -2.658e+00       3.042e-01           0.133           0.059           0.989       1.436e+00         -0.1262
 478       1.002e+01      -2.658e+00       2.025e-01           0.153           0.068           0.986       1.094e+00         -0.0709
 479       1.051e+01      -2.658e+00       1.213e-01           0.174           0.076           0.982       6.855e-01         -0.0494
 480       1.077e+01      -2.658e+00       6.243e-02           0.357           0.144           0.923       2.478e-01          0.0502
Strip 19
 481       1.010e+01      -8.881e-01       1.433e-02           0.026          -0.003          -1.000       2.461e-01          0.1045
 482       9.829e+00      -8.881e-01       3.121e-02          -0.091          -0.047          -0.995       7.277e-01          0.2109
 483       9.299e+00      -8.881e-01       3.906e-02           0.033           0.002          -0.999       1.160e+00          0.2772
 484       8.542e+00      -8.881e-01      -3.391e-02           0.143           0.048          -0.989       1.546e+00          0.1997
 485       7.604e+00      -8.881e-01      -1.914e-01           0.184           0.066          -0.981       1.843e+00          0.0337
 486       6.537e+00      -8.881e-01      -3.752e-01           0.156           0.053          -0.986       2.010e+00         -0.1573
 487       5.404e+00      -8.881e-01      -5.059e-01           0.073           0.009          -0.997       2.047e+00         -0.2663
 488       4.272e+00      -8.881e-01      -5.533e-01           0.010          -0.027          -1.000       1.983e+00         -0.2608
 489       3.205e+00      -8.881e-01      -5.402e-01          -0.036          -0.055          -0.998       1.812e+00         -0.2297
 490       2.266e+00      -8.881e-01      -4.857e-01          -0.083          -0.085          -0.993       1.539e+00         -0.2083
 491       1.509e+00      -8.881e-01      -3.971e-01          -0.157          -0.134          -0.978       1.185e+00         -0.2061
 492       9.790e-01      -8.881e-01      -2.710e-01          -0.328          -0.252          -0.910       7.952e-01         -0.1714
 493       7.060e-01      -8.881e-01      -9.334e-02          -0.713          -0.517          -0.474       5.192e-01          0.4608
 494       7.060e-01      -8.881e-01       1.150e-01          -0.717          -0.508           0.477       5.161e-01          0.4224
 495       9.790e-01      -8.880e-01       2.932e-01          -0.332          -0.232           0.914       7.917e-01         -0.2437
 496       1.509e+00      -8.880e-01       4.176e-01          -0.152          -0.106           0.983       1.180e+00         -0.2564
 497       2.266e+00      -8.880e-01       5.033e-01          -0.082          -0.059           0.995       1.536e+00         -0.2355
 498       3.205e+00      -8.880e-01       5.578e-01          -0.037          -0.031           0.999       1.809e+00         -0.2417
 499       4.272e+00      -8.880e-01       5.794e-01          -0.005          -0.011           1.000       1.982e+00         -0.2544
 500       5.404e+00      -8.880e-01       5.658e-01           0.028           0.008           1.000       2.042e+00         -0.2714
 501       6.537e+00      -8.880e-01       5.097e-01           0.071           0.030           0.997       1.988e+00         -0.2639
 502       7.604e+00      -8.880e-01       4.145e-01           0.108           0.048           0.993       1.820e+00         -0.2128
 503       8.542e+00      -8.880e-01       3.011e-01           0.133           0.059           0.989       1.544e+00         -0.1451
 504       9.299e+00      -8.881e-01       1.925e-01           0.153           0.068           0.986       1.176e+00         -0.0855
 505       9.829e+00      -8.881e-01       1.057e-01           0.174           0.076           0.982       7.373e-01         -0.0597
 506       1.010e+01      -8.881e-01       4.284e-02           0.356           0.144           0.923       2.665e-01          0.0418
Strip 20
 507       1.010e+01       8.881e-01       1.433e-02           0.026           0.003          -1.000       2.461e-01          0.1045
 508       9.829e+00       8.881e-01       3.121e-02          -0.091           0.047          -0.995       7.277e-01          0.2109
 509       9.299e+00       8.881e-01       3.906e-02           0.033          -0.002          -0.999       1.160e+00          0.2772
 510       8.542e+00       8.881e-01      -3.391e-02           0.143          -0.048          -0.989       1.546e+00          0.1997
 511       7.604e+00       8.881e-01      -1.914e-01           0.184          -0.066          -0.981       1.843e+00          0.0337
 512       6.537e+00       8.881e-01      -3.752e-01           0.156          -0.053          -0.986       2.010e+00         -0.1573
 513       5.404e+00       8.881e-01      -5.059e-01           0.073          -0.009          -0.997       2.047e+00         -0.2663
 514       4.272e+00       8.881e-01      -5.533e-01           0.010           0.027          -1.000       1.983e+00         -0.2608
 515       3.205e+00       8.881e-01      -5.402e-01          -0.036           0.055          -0.998       1.812e+00         -0.2297
 516       2.266e+00       8.881e-01      -4.857e-01          -0.083           0.085          -0.993       1.539e+00         -0.2083
 517       1.509e+00       8.881e-01      -3.971e-01          -0.157           0.134          -0.978       1.185e+00         -0.2061
 518       9.790e-01       8.881e-01      -2.710e-01          -0.328           0.252          -0.910       7.952e-01         -0.1714
 519       7.060e-01       8.881e-01      -9.334e-02          -0.713           0.517          -0.474       5.192e-01          0.4608
 520       7.060e-01       8.881e-01       1.150e-01          -0.717           0.508           0.477       5.161e-01          0.4224
 521       9.790e-01       8.880e-01       2.932e-01          -0.332           0.232           0.914       7.917e-01         -0.2437
 522       1.509e+00       8.880e-01       4.176e-01          -0.152           0.106           0.983       1.180e+00         -0.2564
 523       2.266e+00       8.880e-01       5.033e-01          -0.082           0.059           0.995       1.536e+00         -0.2355
 524       3.205e+00       8.880e-01       5.578e-01          -0.037           0.031           0.999       1.809e+00         -0.2417
 525       4.272e+00       8.880e-01       5.794e-01          -0.005           0.011           1.000       1.982e+00         -0.2544
 526       5.404e+00       8.880e-01       5.658e-01           0.028          -0.008           1.000       2.042e+00         -0.2714
 527       6.537e+00       8.880e-01       5.097e-01           0.071          -0.030           0.997       1.988e+00         -0.2639
 528       7.604e+00       8.880e-01       4.145e-01           0.108          -0.048           0.993       1.820e+00         -0.2128
 529       8.542e+00       8.880e-01       3.011e-01           0.133          -0.059           0.989       1.544e+00         -0.1451
 530       9.299e+00       8.881e-01       1.925e-01           0.153          -0.068           0.986       1.176e+00         -0.0855
 531       9.829e+00       8.881e-01       1.057e-01           0.174          -0.076           0.982       7.373e-01         -0.0597
 532       1.010e+01       8.881e-01       4.284e-02           0.356          -0.144           0.923       2.665e-01          0.0418
Strip 21
 533       1.077e+01       2.658e+00       3.573e-02           0.026           0.003          -1.000       2.289e-01          0.1087
 534       1.051e+01       2.658e+00       5.154e-02          -0.091           0.047          -0.995       6.766e-01          0.2153
 535       1.002e+01       2.658e+00       5.889e-02           0.033          -0.002          -0.999       1.079e+00          0.2845
 536       9.307e+00       2.658e+00      -9.432e-03           0.143          -0.048          -0.989       1.437e+00          0.2170
 537       8.428e+00       2.658e+00      -1.569e-01           0.184          -0.066          -0.981       1.714e+00          0.0629
 538       7.429e+00       2.658e+00      -3.290e-01           0.156          -0.053          -0.986       1.869e+00         -0.1272
 539       6.369e+00       2.658e+00      -4.513e-01           0.073          -0.009          -0.997       1.903e+00         -0.2515
 540       5.309e+00       2.658e+00      -4.957e-01           0.010           0.027          -1.000       1.844e+00         -0.2670
 541       4.310e+00       2.658e+00      -4.835e-01          -0.036           0.055          -0.998       1.684e+00         -0.2540
 542       3.431e+00       2.658e+00      -4.324e-01          -0.083           0.085          -0.993       1.431e+00         -0.2495
 543       2.723e+00       2.658e+00      -3.494e-01          -0.157           0.134          -0.978       1.102e+00         -0.2646
 544       2.226e+00       2.658e+00      -2.314e-01          -0.328           0.252          -0.910       7.393e-01         -0.2357
 545       1.971e+00       2.658e+00      -6.507e-02          -0.713           0.517          -0.474       4.827e-01          0.4477
 546       1.971e+00       2.658e+00       1.300e-01          -0.717           0.508           0.477       4.799e-01          0.3890
 547       2.226e+00       2.658e+00       2.968e-01          -0.332           0.232           0.914       7.362e-01         -0.3370
 548       2.723e+00       2.658e+00       4.132e-01          -0.152           0.106           0.983       1.097e+00         -0.3298
 549       3.431e+00       2.658e+00       4.935e-01          -0.082           0.059           0.995       1.428e+00         -0.2848
 550       4.310e+00       2.658e+00       5.445e-01          -0.037           0.031           0.999       1.683e+00         -0.2733
 551       5.309e+00       2.658e+00       5.648e-01          -0.005           0.011           1.000       1.843e+00         -0.2718
 552       6.369e+00       2.658e+00       5.520e-01           0.028          -0.008           1.000       1.899e+00         -0.2744
 553       7.429e+00       2.658e+00       4.995e-01           0.071          -0.030           0.997       1.848e+00         -0.2529
 554       8.428e+00       2.658e+00       4.104e-01           0.108          -0.048           0.993       1.692e+00         -0.1938
 555       9.307e+00       2.658e+00       3.042e-01           0.133          -0.059           0.989       1.436e+00         -0.1262
 556       1.002e+01       2.658e+00       2.025e-01           0.153          -0.068           0.986       1.094e+00         -0.0709
 557       1.051e+01       2.658e+00       1.213e-01           0.174          -0.076           0.982       6.855e-01         -0.0494
 558       1.077e+01       2.658e+00       6.243e-02           0.357          -0.144           0.923       2.478e-01          0.0502
Strip 22
 559       1.143e+01       4.410e+00       5.692e-02           0.026           0.003          -1.000       2.105e-01          0.1120
 560       1.119e+01       4.410e+00       7.166e-02          -0.091           0.047          -0.995       6.223e-01          0.2183
 561       1.072e+01       4.410e+00       7.851e-02           0.033          -0.002          -0.999       9.923e-01          0.2879
 562       1.006e+01       4.410e+00       1.480e-02           0.143          -0.048          -0.989       1.322e+00          0.2224
 563       9.244e+00       4.410e+00      -1.227e-01           0.184          -0.066          -0.981       1.576e+00          0.0715
 564       8.313e+00       4.410e+00      -2.832e-01           0.156          -0.053          -0.986       1.719e+00         -0.1164
 565       7.324e+00       4.410e+00      -3.972e-01           0.073          -0.009          -0.997       1.751e+00         -0.2427
 566       6.335e+00       4.410e+00      -4.387e-01           0.010           0.027          -1.000       1.696e+00         -0.2637
 567       5.404e+00       4.410e+00      -4.273e-01          -0.036           0.055          -0.998       1.549e+00         -0.2569
 568       4.584e+00       4.410e+00      -3.796e-01          -0.083           0.085          -0.993       1.316e+00         -0.2577
[...]
 852       1.506e+01       1.931e+01       4.617e-02           0.010           0.027          -1.000       2.932e-01         -0.2411
 853       1.470e+01       1.931e+01       5.057e-02          -0.036           0.055          -0.998       2.677e-01         -0.2323
 854       1.439e+01       1.931e+01       6.891e-02          -0.083           0.085          -0.993       2.274e-01         -0.2275
 855       1.413e+01       1.931e+01       9.871e-02          -0.158           0.134          -0.978       1.751e-01         -0.2306
 856       1.396e+01       1.931e+01       1.411e-01          -0.329           0.252          -0.910       1.173e-01         -0.1587
 857       1.386e+01       1.931e+01       2.008e-01          -0.714           0.518          -0.471       7.659e-02          0.5078
 858       1.386e+01       1.931e+01       2.709e-01          -0.716           0.507           0.480       7.645e-02          0.2758
 859       1.396e+01       1.931e+01       3.308e-01          -0.331           0.232           0.915       1.172e-01         -0.5096
 860       1.413e+01       1.931e+01       3.726e-01          -0.151           0.106           0.983       1.746e-01         -0.4409
 861       1.439e+01       1.931e+01       4.015e-01          -0.082           0.059           0.995       2.271e-01         -0.3589
 862       1.470e+01       1.930e+01       4.198e-01          -0.037           0.031           0.999       2.675e-01         -0.3233
 863       1.506e+01       1.930e+01       4.271e-01          -0.005           0.011           1.000       2.930e-01         -0.3024
 864       1.544e+01       1.930e+01       4.225e-01           0.028          -0.008           1.000       3.018e-01         -0.2889
 865       1.583e+01       1.931e+01       4.036e-01           0.071          -0.030           0.997       2.938e-01         -0.2547
 866       1.618e+01       1.931e+01       3.716e-01           0.108          -0.048           0.993       2.690e-01         -0.1873
 867       1.650e+01       1.931e+01       3.335e-01           0.133          -0.059           0.989       2.282e-01         -0.1164
 868       1.675e+01       1.931e+01       2.970e-01           0.153          -0.068           0.986       1.738e-01         -0.0601
 869       1.693e+01       1.931e+01       2.678e-01           0.174          -0.076           0.982       1.089e-01         -0.0375
 870       1.702e+01       1.931e+01       2.466e-01           0.357          -0.144           0.923       3.936e-02          0.0644
Strip 34
 871       1.729e+01       2.002e+01       2.457e-01           0.026           0.003          -1.000       2.782e-02          0.1216
 872       1.721e+01       2.002e+01       2.509e-01          -0.091           0.047          -0.995       8.220e-02          0.2259
 873       1.704e+01       2.002e+01       2.534e-01           0.033          -0.002          -0.999       1.311e-01          0.2941
 874       1.681e+01       2.002e+01       2.307e-01           0.143          -0.048          -0.989       1.748e-01          0.2304
 875       1.652e+01       2.002e+01       1.818e-01           0.184          -0.066          -0.981       2.084e-01          0.0844
 876       1.619e+01       2.002e+01       1.247e-01           0.156          -0.053          -0.986       2.273e-01         -0.0973
 877       1.583e+01       2.002e+01       8.413e-02           0.073          -0.009          -0.997       2.314e-01         -0.2202
 878       1.548e+01       2.002e+01       6.939e-02           0.010           0.027          -1.000       2.241e-01         -0.2411
 879       1.515e+01       2.002e+01       7.346e-02          -0.036           0.055          -0.998       2.047e-01         -0.2337
 880       1.486e+01       2.002e+01       9.040e-02          -0.083           0.085          -0.993       1.738e-01         -0.2295
 881       1.462e+01       2.002e+01       1.179e-01          -0.158           0.134          -0.978       1.338e-01         -0.2326
 882       1.446e+01       2.002e+01       1.571e-01          -0.329           0.252          -0.910       8.968e-02         -0.1613
 883       1.437e+01       2.002e+01       2.122e-01          -0.715           0.518          -0.470       5.853e-02          0.5055
 884       1.437e+01       2.002e+01       2.770e-01          -0.716           0.507           0.480       5.845e-02          0.2744
 885       1.446e+01       2.002e+01       3.323e-01          -0.331           0.232           0.915       8.964e-02         -0.5088
 886       1.462e+01       2.002e+01       3.709e-01          -0.151           0.106           0.983       1.335e-01         -0.4391
 887       1.486e+01       2.002e+01       3.975e-01          -0.082           0.059           0.995       1.736e-01         -0.3563
 888       1.515e+01       2.002e+01       4.145e-01          -0.037           0.031           0.999       2.045e-01         -0.3192
 889       1.548e+01       2.002e+01       4.212e-01          -0.005           0.011           1.000       2.240e-01         -0.2961
 890       1.583e+01       2.002e+01       4.169e-01           0.028          -0.008           1.000       2.307e-01         -0.2807
 891       1.619e+01       2.002e+01       3.995e-01           0.071          -0.030           0.997       2.245e-01         -0.2456
 892       1.652e+01       2.002e+01       3.700e-01           0.108          -0.048           0.993       2.056e-01         -0.1786
 893       1.681e+01       2.002e+01       3.347e-01           0.133          -0.059           0.989       1.744e-01         -0.1091
 894       1.704e+01       2.002e+01       3.010e-01           0.153          -0.068           0.986       1.328e-01         -0.0545
 895       1.721e+01       2.002e+01       2.741e-01           0.174          -0.076           0.982       8.326e-02         -0.0333
 896       1.729e+01       2.002e+01       2.545e-01           0.357          -0.144           0.923       3.008e-02          0.0682
Strip 35
 897       1.751e+01       2.060e+01       2.527e-01           0.026           0.003          -1.000       2.037e-02          0.1212
 898       1.743e+01       2.060e+01       2.575e-01          -0.091           0.047          -0.995       6.020e-02          0.2252
 899       1.728e+01       2.060e+01       2.598e-01           0.033          -0.002          -0.999       9.604e-02          0.2936
 900       1.706e+01       2.060e+01       2.387e-01           0.143          -0.048          -0.989       1.280e-01          0.2317
 901       1.679e+01       2.060e+01       1.930e-01           0.184          -0.066          -0.981       1.527e-01          0.0885
 902       1.648e+01       2.060e+01       1.398e-01           0.156          -0.053          -0.986       1.665e-01         -0.0907
 903       1.615e+01       2.060e+01       1.019e-01           0.073          -0.009          -0.997       1.695e-01         -0.2133
 904       1.582e+01       2.060e+01       8.816e-02           0.010           0.027          -1.000       1.641e-01         -0.2375
 905       1.551e+01       2.060e+01       9.196e-02          -0.036           0.055          -0.998       1.499e-01         -0.2347
 906       1.524e+01       2.060e+01       1.078e-01          -0.083           0.085          -0.993       1.273e-01         -0.2338
 907       1.502e+01       2.060e+01       1.334e-01          -0.158           0.134          -0.978       9.799e-02         -0.2388
 908       1.487e+01       2.060e+01       1.700e-01          -0.329           0.252          -0.910       6.567e-02         -0.1703
 909       1.479e+01       2.060e+01       2.215e-01          -0.715           0.518          -0.470       4.286e-02          0.4975
 910       1.479e+01       2.060e+01       2.818e-01          -0.715           0.507           0.481       4.282e-02          0.2736
 911       1.487e+01       2.060e+01       3.335e-01          -0.331           0.232           0.915       6.567e-02         -0.5048
 912       1.502e+01       2.060e+01       3.695e-01          -0.151           0.106           0.983       9.776e-02         -0.4343
 913       1.524e+01       2.060e+01       3.943e-01          -0.082           0.059           0.995       1.272e-01         -0.3499
 914       1.551e+01       2.059e+01       4.101e-01          -0.037           0.031           0.999       1.498e-01         -0.3090
 915       1.582e+01       2.059e+01       4.164e-01          -0.005           0.011           1.000       1.640e-01         -0.2812
 916       1.615e+01       2.059e+01       4.124e-01           0.028          -0.008           1.000       1.690e-01         -0.2625
 917       1.648e+01       2.060e+01       3.962e-01           0.071          -0.030           0.997       1.645e-01         -0.2271
 918       1.679e+01       2.060e+01       3.686e-01           0.108          -0.048           0.993       1.506e-01         -0.1626
 919       1.706e+01       2.060e+01       3.358e-01           0.133          -0.059           0.989       1.277e-01         -0.0971
 920       1.728e+01       2.060e+01       3.043e-01           0.153          -0.068           0.986       9.728e-02         -0.0468
 921       1.743e+01       2.060e+01       2.791e-01           0.174          -0.076           0.982       6.098e-02         -0.0293
 922       1.751e+01       2.060e+01       2.609e-01           0.357          -0.144           0.923       2.203e-02          0.0710
Strip 36
 923       1.767e+01       2.103e+01       2.579e-01           0.026           0.003          -1.000       1.386e-02          0.1102
 924       1.760e+01       2.103e+01       2.626e-01          -0.091           0.047          -0.995       4.095e-02          0.2137
 925       1.745e+01       2.103e+01       2.647e-01           0.033          -0.002          -0.999       6.533e-02          0.2835
 926       1.725e+01       2.103e+01       2.447e-01           0.143          -0.048          -0.989       8.707e-02          0.2270
 927       1.699e+01       2.103e+01       2.015e-01           0.184          -0.066          -0.981       1.039e-01          0.0922
 928       1.670e+01       2.103e+01       1.512e-01           0.156          -0.053          -0.986       1.132e-01         -0.0773
 929       1.639e+01       2.103e+01       1.154e-01           0.073          -0.009          -0.997       1.153e-01         -0.1940
 930       1.608e+01       2.103e+01       1.024e-01           0.010           0.027          -1.000       1.116e-01         -0.2201
 931       1.578e+01       2.103e+01       1.059e-01          -0.036           0.055          -0.998       1.020e-01         -0.2267
 932       1.553e+01       2.103e+01       1.209e-01          -0.083           0.085          -0.993       8.659e-02         -0.2384
 933       1.532e+01       2.103e+01       1.452e-01          -0.158           0.134          -0.978       6.665e-02         -0.2522
 934       1.517e+01       2.103e+01       1.797e-01          -0.329           0.252          -0.910       4.466e-02         -0.1920
 935       1.510e+01       2.103e+01       2.284e-01          -0.715           0.518          -0.469       2.915e-02          0.4753
 936       1.510e+01       2.103e+01       2.855e-01          -0.715           0.507           0.481       2.913e-02          0.2666
 937       1.517e+01       2.103e+01       3.344e-01          -0.331           0.231           0.915       4.468e-02         -0.5005
 938       1.532e+01       2.103e+01       3.684e-01          -0.151           0.106           0.983       6.650e-02         -0.4264
 939       1.553e+01       2.103e+01       3.919e-01          -0.082           0.059           0.995       8.651e-02         -0.3351
 940       1.578e+01       2.103e+01       4.069e-01          -0.037           0.031           0.999       1.019e-01         -0.2836
 941       1.608e+01       2.103e+01       4.128e-01          -0.005           0.011           1.000       1.116e-01         -0.2489
 942       1.639e+01       2.103e+01       4.091e-01           0.028          -0.008           1.000       1.149e-01         -0.2290
 943       1.670e+01       2.103e+01       3.937e-01           0.071          -0.030           0.997       1.119e-01         -0.1970
 944       1.699e+01       2.103e+01       3.676e-01           0.108          -0.048           0.993       1.024e-01         -0.1395
 945       1.725e+01       2.103e+01       3.365e-01           0.133          -0.059           0.989       8.689e-02         -0.0825
 946       1.745e+01       2.103e+01       3.068e-01           0.153          -0.068           0.986       6.617e-02         -0.0411
 947       1.760e+01       2.103e+01       2.830e-01           0.174          -0.076           0.982       4.147e-02         -0.0328
 948       1.767e+01       2.103e+01       2.657e-01           0.357          -0.144           0.923       1.499e-02          0.0648
Strip 37
 949       1.778e+01       2.132e+01       2.615e-01           0.026           0.003          -1.000       8.032e-03          0.0691
 950       1.771e+01       2.132e+01       2.659e-01          -0.091           0.047          -0.995       2.373e-02          0.1681
 951       1.757e+01       2.132e+01       2.680e-01           0.033          -0.002          -0.999       3.786e-02          0.2412
 952       1.737e+01       2.133e+01       2.488e-01           0.143          -0.048          -0.989       5.047e-02          0.1995
 953       1.712e+01       2.133e+01       2.072e-01           0.184          -0.066          -0.981       6.020e-02          0.0854
 954       1.684e+01       2.133e+01       1.588e-01           0.156          -0.053          -0.986       6.563e-02         -0.0619
 955       1.655e+01       2.133e+01       1.244e-01           0.073          -0.009          -0.997       6.682e-02         -0.1620
 956       1.625e+01       2.133e+01       1.119e-01           0.010           0.027          -1.000       6.471e-02         -0.1828
 957       1.597e+01       2.133e+01       1.153e-01          -0.036           0.055          -0.998       5.909e-02         -0.1929
 958       1.572e+01       2.133e+01       1.297e-01          -0.083           0.085          -0.993       5.018e-02         -0.2212
 959       1.552e+01       2.133e+01       1.530e-01          -0.158           0.134          -0.978       3.863e-02         -0.2666
 960       1.538e+01       2.133e+01       1.863e-01          -0.329           0.252          -0.910       2.588e-02         -0.2430
 961       1.531e+01       2.133e+01       2.331e-01          -0.715           0.518          -0.469       1.689e-02          0.3942
 962       1.531e+01       2.132e+01       2.880e-01          -0.715           0.507           0.481       1.689e-02          0.2156
 963       1.538e+01       2.132e+01       3.350e-01          -0.331           0.231           0.915       2.590e-02         -0.5030
 964       1.552e+01       2.132e+01       3.677e-01          -0.151           0.106           0.983       3.855e-02         -0.4029
 965       1.572e+01       2.132e+01       3.903e-01          -0.082           0.059           0.995       5.014e-02         -0.2903
 966       1.597e+01       2.132e+01       4.047e-01          -0.037           0.031           0.999       5.906e-02         -0.2319
 967       1.625e+01       2.132e+01       4.104e-01          -0.005           0.011           1.000       6.467e-02         -0.2007
 968       1.655e+01       2.132e+01       4.068e-01           0.028          -0.008           1.000       6.662e-02         -0.1854
 969       1.684e+01       2.132e+01       3.920e-01           0.071          -0.030           0.997       6.483e-02         -0.1600
 970       1.712e+01       2.132e+01       3.669e-01           0.108          -0.048           0.993       5.935e-02         -0.1147
 971       1.737e+01       2.132e+01       3.370e-01           0.133          -0.059           0.989       5.036e-02         -0.0748
 972       1.757e+01       2.132e+01       3.084e-01           0.153          -0.068           0.986       3.835e-02         -0.0527
 973       1.771e+01       2.132e+01       2.855e-01           0.174          -0.076           0.982       2.404e-02         -0.0661
 974       1.778e+01       2.132e+01       2.690e-01           0.357          -0.144           0.923       8.684e-03          0.0266
Strip 38
 975       1.784e+01       2.147e+01       2.632e-01           0.026           0.003          -1.000       2.630e-03          0.0145
 976       1.777e+01       2.147e+01       2.676e-01          -0.091           0.047          -0.995       7.770e-03          0.0915
 977       1.763e+01       2.147e+01       2.696e-01           0.033          -0.002          -0.999       1.240e-02          0.1523
 978       1.744e+01       2.147e+01       2.508e-01           0.143          -0.048          -0.989       1.652e-02          0.1313
 979       1.719e+01       2.147e+01       2.101e-01           0.184          -0.066          -0.981       1.971e-02          0.0553
 980       1.692e+01       2.147e+01       1.626e-01           0.156          -0.053          -0.986       2.149e-02         -0.0508
 981       1.662e+01       2.147e+01       1.289e-01           0.073          -0.009          -0.997       2.188e-02         -0.1252
 982       1.633e+01       2.147e+01       1.166e-01           0.010           0.027          -1.000       2.118e-02         -0.1416
 983       1.606e+01       2.147e+01       1.200e-01          -0.036           0.055          -0.998       1.935e-02         -0.1498
 984       1.581e+01       2.147e+01       1.341e-01          -0.083           0.085          -0.993       1.643e-02         -0.1726
 985       1.562e+01       2.147e+01       1.570e-01          -0.158           0.134          -0.978       1.265e-02         -0.2229
 986       1.548e+01       2.147e+01       1.895e-01          -0.329           0.252          -0.910       8.473e-03         -0.2454
 987       1.541e+01       2.147e+01       2.354e-01          -0.715           0.518          -0.469       5.530e-03          0.3198
 988       1.541e+01       2.147e+01       2.892e-01          -0.715           0.507           0.482       5.529e-03          0.1798
 989       1.548e+01       2.147e+01       3.353e-01          -0.331           0.231           0.915       8.479e-03         -0.4485
 990       1.562e+01       2.147e+01       3.674e-01          -0.151           0.106           0.983       1.262e-02         -0.3240
 991       1.581e+01       2.147e+01       3.895e-01          -0.082           0.059           0.995       1.642e-02         -0.2241
 992       1.606e+01       2.147e+01       4.036e-01          -0.037           0.031           0.999       1.934e-02         -0.1816
 993       1.633e+01       2.147e+01       4.092e-01          -0.005           0.011           1.000       2.117e-02         -0.1588
 994       1.662e+01       2.147e+01       4.056e-01           0.028          -0.008           1.000       2.181e-02         -0.1451
 995       1.692e+01       2.147e+01       3.912e-01           0.071          -0.030           0.997       2.123e-02         -0.1214
 996       1.719e+01       2.147e+01       3.666e-01           0.108          -0.048           0.993       1.943e-02         -0.0811
 997       1.744e+01       2.147e+01       3.373e-01           0.133          -0.059           0.989       1.649e-02         -0.0499
 998       1.763e+01       2.147e+01       3.092e-01           0.153          -0.068           0.986       1.255e-02         -0.0454
 999       1.777e+01       2.147e+01       2.868e-01           0.174          -0.076           0.982       7.869e-03         -0.0865
1000       1.784e+01       2.147e+01       2.706e-01           0.357          -0.144           0.923       2.843e-03         -0.0060










