xflr5 v6.61

Plane Name
T1-10.0 m/s-Panel-Inviscid
QInf  =   10.000000 m/s
Alpha =   10.000000
Beta  =    0.000°
Phi   =    0.000°
Ctrl  =    0.000
CL    =    0.907325
Cy    =    0.000000
Cd    =    0.036550     ICd   =    0.036550     PCd   =    0.000000
Cl   = -1.18803e-15
Cm   =    -1.15599
ICn   =   -0.000000     PCn   =   -0.000000 
XCP   =    9.068941     YCP   =    0.000000     ZCP   =    0.313909  
XNP   =    0.000000
Bending = 70019.527240

Main Wing
  y-span        Chord      Ai         Cl        PCd          ICd        CmGeom    CmAirf@chord/4    XTrtop    XTrBot      XCP       BM
  -22.4067     2.7426    -8.318    0.330525    0.000000    0.048326   -2.457803    0.008843     0.0000    0.0000    0.2253    0.0000
  -22.2536     2.7928    -6.276    0.544552    0.000000    0.059881   -3.474000   -0.010894     0.0000    0.0000    0.2641    0.6690
  -21.9485     2.8930    -5.174    0.732826    0.000000    0.066359   -4.186073   -0.007270     0.0000    0.0000    0.2552    8.6986
  -21.4935     3.0424    -4.269    0.873388    0.000000    0.065194   -4.626129   -0.017909     0.0000    0.0000    0.2658   43.7718
  -20.8917     3.2400    -3.546    0.967510    0.000000    0.059943   -4.709219   -0.030456     0.0000    0.0000    0.2767   143.4033
  -20.1472     3.4845    -2.978    1.022750    0.000000    0.053201   -4.504927   -0.040397     0.0000    0.0000    0.2847   365.6509
  -19.2650     3.7742    -2.565    1.048945    0.000000    0.046968   -4.121801   -0.046945     0.0000    0.0000    0.2899   790.0845
  -18.2512     4.1071    -2.294    1.055130    0.000000    0.042260   -3.653965   -0.050865     0.0000    0.0000    0.2933   1517.5356
  -17.1128     4.4809    -2.141    1.048006    0.000000    0.039169   -3.165394   -0.053098     0.0000    0.0000    0.2957   2668.9261
  -15.8575     4.8931    -2.075    1.032004    0.000000    0.037381   -2.693736   -0.054323     0.0000    0.0000    0.2977   4383.0784
  -14.4938     5.3408    -2.070    1.009852    0.000000    0.036483   -2.258292   -0.054968     0.0000    0.0000    0.2995   6813.2616
  -13.0311     5.8211    -2.106    0.983187    0.000000    0.036130   -1.867396   -0.055291     0.0000    0.0000    0.3013   10122.2604
  -11.4794     6.3306    -2.167    0.952926    0.000000    0.036032   -1.522982   -0.055458     0.0000    0.0000    0.3033   14475.9211
   -9.8493     6.8659    -2.242    0.919548    0.000000    0.035969   -1.223599   -0.055621     0.0000    0.0000    0.3056   20035.2506
   -8.1520     7.4232    -2.319    0.883195    0.000000    0.035721   -0.966197   -0.055970     0.0000    0.0000    0.3085   26947.3413
   -6.3989     7.9989    -2.382    0.843787    0.000000    0.035052   -0.747282   -0.056825     0.0000    0.0000    0.3126   35335.4641
   -4.6021     8.5889    -2.408    0.801061    0.000000    0.033617   -0.563624   -0.058829     0.0000    0.0000    0.3189   45288.8509
   -2.7739     9.1892    -2.344    0.754622    0.000000    0.030772   -0.413186   -0.063382     0.0000    0.0000    0.3299   56852.7570
   -0.9267     9.7957    -2.003    0.703483    0.000000    0.024245   -0.296379   -0.075083     0.0000    0.0000    0.3542   70019.5272
    0.9267     9.7957    -2.003    0.703483    0.000000    0.024245   -0.296379   -0.075083     0.0000    0.0000    0.3542   70019.5272
    2.7739     9.1892    -2.344    0.754622    0.000000    0.030772   -0.413186   -0.063382     0.0000    0.0000    0.3299   56852.7570
    4.6021     8.5889    -2.408    0.801061    0.000000    0.033617   -0.563624   -0.058829     0.0000    0.0000    0.3189   45288.8509
    6.3989     7.9989    -2.382    0.843787    0.000000    0.035052   -0.747282   -0.056825     0.0000    0.0000    0.3126   35335.4641
    8.1520     7.4232    -2.319    0.883195    0.000000    0.035721   -0.966197   -0.055970     0.0000    0.0000    0.3085   26947.3413
    9.8493     6.8659    -2.242    0.919548    0.000000    0.035969   -1.223599   -0.055621     0.0000    0.0000    0.3056   20035.2506
   11.4794     6.3306    -2.167    0.952926    0.000000    0.036032   -1.522982   -0.055458     0.0000    0.0000    0.3033   14475.9211
   13.0311     5.8211    -2.106    0.983187    0.000000    0.036130   -1.867396   -0.055291     0.0000    0.0000    0.3013   10122.2604
   14.4938     5.3408    -2.070    1.009852    0.000000    0.036483   -2.258292   -0.054968     0.0000    0.0000    0.2995   6813.2616
   15.8575     4.8931    -2.075    1.032004    0.000000    0.037381   -2.693736   -0.054323     0.0000    0.0000    0.2977   4383.0784
   17.1128     4.4809    -2.141    1.048006    0.000000    0.039169   -3.165394   -0.053098     0.0000    0.0000    0.2957   2668.9261
   18.2512     4.1071    -2.294    1.055130    0.000000    0.042260   -3.653965   -0.050865     0.0000    0.0000    0.2933   1517.5356
   19.2650     3.7742    -2.565    1.048945    0.000000    0.046968   -4.121801   -0.046945     0.0000    0.0000    0.2899   790.0845
   20.1472     3.4845    -2.978    1.022750    0.000000    0.053201   -4.504927   -0.040397     0.0000    0.0000    0.2847   365.6509
   20.8917     3.2400    -3.546    0.967510    0.000000    0.059943   -4.709219   -0.030456     0.0000    0.0000    0.2767   143.4033
   21.4935     3.0424    -4.269    0.873388    0.000000    0.065194   -4.626129   -0.017909     0.0000    0.0000    0.2658   43.7718
   21.9485     2.8930    -5.174    0.732826    0.000000    0.066359   -4.186073   -0.007270     0.0000    0.0000    0.2552    8.6986
   22.2536     2.7928    -6.276    0.544552    0.000000    0.059881   -3.474000   -0.010894     0.0000    0.0000    0.2641    0.6690
   22.4067     2.7426    -8.318    0.330525    0.000000    0.048326   -2.457803    0.008843     0.0000    0.0000    0.2253    0.0000


Main Wing Cp Coefficients
 Panel     CtrlPt.x        CtrlPt.y        CtrlPt.z       Nx      Ny       Nz        Area       Cp
Main WingCp Coefficients
Strip 1
  13       1.812e+01      -2.240e+01       2.747e-01           0.026          -0.003          -1.000       3.056e-03         -1.2298
  14       1.804e+01      -2.240e+01       2.796e-01          -0.091          -0.045          -0.995       9.029e-03         -1.2112
  15       1.789e+01      -2.240e+01       2.819e-01           0.033           0.002          -0.999       1.441e-02         -1.0467
  16       1.767e+01      -2.241e+01       2.609e-01           0.143           0.046          -0.989       1.920e-02         -0.7460
  17       1.740e+01      -2.241e+01       2.156e-01           0.184           0.063          -0.981       2.290e-02         -0.4788
  18       1.709e+01      -2.241e+01       1.627e-01           0.156           0.050          -0.986       2.497e-02         -0.3348
  19       1.676e+01      -2.241e+01       1.251e-01           0.073           0.008          -0.997       2.542e-02         -0.2657
  20       1.644e+01      -2.241e+01       1.115e-01           0.010          -0.026          -1.000       2.462e-02         -0.2158
  21       1.613e+01      -2.241e+01       1.153e-01          -0.036          -0.053          -0.998       2.248e-02         -0.1710
  22       1.586e+01      -2.241e+01       1.309e-01          -0.083          -0.082          -0.993       1.909e-02         -0.1093
  23       1.564e+01      -2.241e+01       1.564e-01          -0.158          -0.129          -0.979       1.469e-02          0.0160
  24       1.549e+01      -2.241e+01       1.927e-01          -0.330          -0.243          -0.912       9.823e-03          0.2329
  25       1.541e+01      -2.241e+01       2.438e-01          -0.723          -0.502          -0.474       6.357e-03         -0.1826
  26       1.541e+01      -2.240e+01       3.037e-01          -0.723          -0.491           0.487       6.356e-03         -2.1295
  27       1.549e+01      -2.240e+01       3.550e-01          -0.332          -0.222           0.917       9.830e-03         -2.3431
  28       1.564e+01      -2.240e+01       3.907e-01          -0.151          -0.101           0.983       1.466e-02         -1.1538
  29       1.586e+01      -2.240e+01       4.154e-01          -0.082          -0.056           0.995       1.907e-02         -0.7345
  30       1.613e+01      -2.240e+01       4.310e-01          -0.037          -0.029           0.999       2.247e-02         -0.5878
  31       1.644e+01      -2.240e+01       4.373e-01          -0.005          -0.010           1.000       2.460e-02         -0.5212
  32       1.676e+01      -2.240e+01       4.333e-01           0.028           0.008           1.000       2.535e-02         -0.4949
  33       1.709e+01      -2.240e+01       4.172e-01           0.071           0.029           0.997       2.467e-02         -0.4966
  34       1.740e+01      -2.240e+01       3.898e-01           0.108           0.047           0.993       2.258e-02         -0.5774
  35       1.767e+01      -2.240e+01       3.572e-01           0.133           0.058           0.989       1.916e-02         -0.8049
  36       1.789e+01      -2.240e+01       3.260e-01           0.153           0.065           0.986       1.459e-02         -1.1356
  37       1.804e+01      -2.240e+01       3.010e-01           0.174           0.073           0.982       9.143e-03         -1.3858
  38       1.812e+01      -2.240e+01       2.829e-01           0.357           0.139           0.924       3.302e-03         -1.2384
Strip 2
  39       1.806e+01      -2.225e+01       2.729e-01           0.026          -0.003          -1.000       9.314e-03         -0.5783
  40       1.798e+01      -2.225e+01       2.778e-01          -0.091          -0.045          -0.995       2.752e-02         -0.4992
  41       1.783e+01      -2.225e+01       2.801e-01           0.033           0.002          -0.999       4.391e-02         -0.3979
  42       1.760e+01      -2.225e+01       2.588e-01           0.143           0.046          -0.989       5.852e-02         -0.2882
  43       1.733e+01      -2.225e+01       2.126e-01           0.184           0.063          -0.981       6.979e-02         -0.2195
  44       1.702e+01      -2.225e+01       1.588e-01           0.156           0.050          -0.986       7.610e-02         -0.2108
  45       1.668e+01      -2.225e+01       1.205e-01           0.073           0.008          -0.997       7.749e-02         -0.1984
  46       1.635e+01      -2.225e+01       1.066e-01           0.010          -0.026          -1.000       7.504e-02         -0.1508
  47       1.604e+01      -2.225e+01       1.105e-01          -0.036          -0.053          -0.998       6.852e-02         -0.0865
  48       1.577e+01      -2.225e+01       1.264e-01          -0.083          -0.082          -0.993       5.818e-02          0.0096
  49       1.554e+01      -2.225e+01       1.524e-01          -0.158          -0.129          -0.979       4.477e-02          0.1829
  50       1.539e+01      -2.225e+01       1.893e-01          -0.330          -0.243          -0.912       2.994e-02          0.4026
  51       1.531e+01      -2.225e+01       2.414e-01          -0.723          -0.502          -0.475       1.938e-02         -0.3664
  52       1.531e+01      -2.225e+01       3.024e-01          -0.723          -0.491           0.486       1.937e-02         -2.8753
  53       1.539e+01      -2.225e+01       3.546e-01          -0.332          -0.222           0.917       2.996e-02         -2.9735
  54       1.554e+01      -2.225e+01       3.910e-01          -0.151          -0.101           0.983       4.467e-02         -1.4595
  55       1.577e+01      -2.225e+01       4.161e-01          -0.082          -0.056           0.995       5.813e-02         -0.8683
  56       1.604e+01      -2.225e+01       4.320e-01          -0.037          -0.029           0.999       6.848e-02         -0.6334
  57       1.635e+01      -2.225e+01       4.384e-01          -0.005          -0.010           1.000       7.500e-02         -0.5288
  58       1.668e+01      -2.225e+01       4.344e-01           0.028           0.008           1.000       7.725e-02         -0.4864
  59       1.702e+01      -2.225e+01       4.180e-01           0.071           0.029           0.997       7.518e-02         -0.4668
  60       1.733e+01      -2.225e+01       3.901e-01           0.108           0.047           0.993       6.883e-02         -0.4792
  61       1.760e+01      -2.225e+01       3.569e-01           0.133           0.058           0.989       5.839e-02         -0.5549
  62       1.783e+01      -2.225e+01       3.251e-01           0.153           0.065           0.986       4.447e-02         -0.6594
  63       1.798e+01      -2.225e+01       2.997e-01           0.174           0.073           0.982       2.787e-02         -0.7367
  64       1.806e+01      -2.225e+01       2.812e-01           0.357           0.139           0.924       1.006e-02         -0.5440
Strip 3
  65       1.795e+01      -2.195e+01       2.692e-01           0.026          -0.003          -1.000       1.601e-02         -0.0664
  66       1.787e+01      -2.195e+01       2.743e-01          -0.091          -0.045          -0.995       4.730e-02          0.0523
  67       1.771e+01      -2.195e+01       2.767e-01           0.033           0.002          -0.999       7.546e-02          0.0985
  68       1.748e+01      -2.195e+01       2.546e-01           0.143           0.046          -0.989       1.006e-01          0.0633
  69       1.719e+01      -2.195e+01       2.068e-01           0.184           0.063          -0.981       1.199e-01         -0.0089
  70       1.687e+01      -2.195e+01       1.510e-01           0.156           0.050          -0.986       1.308e-01         -0.0853
  71       1.653e+01      -2.195e+01       1.114e-01           0.073           0.008          -0.997       1.332e-01         -0.1026
  72       1.618e+01      -2.195e+01       9.698e-02           0.010          -0.026          -1.000       1.290e-01         -0.0469
  73       1.586e+01      -2.195e+01       1.010e-01          -0.036          -0.053          -0.998       1.178e-01          0.0482
  74       1.557e+01      -2.195e+01       1.175e-01          -0.083          -0.082          -0.993       9.999e-02          0.1896
  75       1.534e+01      -2.195e+01       1.444e-01          -0.158          -0.129          -0.979       7.694e-02          0.3971
  76       1.518e+01      -2.195e+01       1.826e-01          -0.330          -0.243          -0.912       5.146e-02          0.5693
  77       1.510e+01      -2.195e+01       2.365e-01          -0.723          -0.502          -0.475       3.331e-02         -0.4961
  78       1.510e+01      -2.195e+01       2.998e-01          -0.723          -0.491           0.486       3.329e-02         -3.4314
  79       1.518e+01      -2.195e+01       3.538e-01          -0.332          -0.222           0.917       5.148e-02         -3.4615
  80       1.534e+01      -2.195e+01       3.915e-01          -0.151          -0.101           0.983       7.677e-02         -1.7462
  81       1.557e+01      -2.195e+01       4.175e-01          -0.082          -0.056           0.995       9.990e-02         -1.0474
  82       1.586e+01      -2.195e+01       4.341e-01          -0.037          -0.029           0.999       1.177e-01         -0.7273
  83       1.618e+01      -2.194e+01       4.406e-01          -0.005          -0.010           1.000       1.289e-01         -0.5588
  84       1.653e+01      -2.194e+01       4.365e-01           0.028           0.008           1.000       1.328e-01         -0.4687
  85       1.687e+01      -2.195e+01       4.195e-01           0.071           0.029           0.997       1.292e-01         -0.3902
  86       1.719e+01      -2.195e+01       3.906e-01           0.108           0.047           0.993       1.183e-01         -0.3026
  87       1.748e+01      -2.195e+01       3.562e-01           0.133           0.058           0.989       1.004e-01         -0.2349
  88       1.771e+01      -2.195e+01       3.233e-01           0.153           0.065           0.986       7.642e-02         -0.1888
  89       1.787e+01      -2.195e+01       2.969e-01           0.174           0.073           0.982       4.790e-02         -0.1747
  90       1.795e+01      -2.195e+01       2.779e-01           0.357           0.139           0.924       1.730e-02          0.0111
Strip 4
  91       1.779e+01      -2.149e+01       2.637e-01           0.026          -0.003          -1.000       2.341e-02          0.0418
  92       1.770e+01      -2.149e+01       2.691e-01          -0.091          -0.045          -0.995       6.916e-02          0.1778
  93       1.753e+01      -2.149e+01       2.716e-01           0.033           0.002          -0.999       1.103e-01          0.2297
  94       1.729e+01      -2.149e+01       2.483e-01           0.143           0.046          -0.989       1.470e-01          0.1816
  95       1.699e+01      -2.149e+01       1.980e-01           0.184           0.063          -0.981       1.754e-01          0.0884
  96       1.665e+01      -2.149e+01       1.394e-01           0.156           0.050          -0.986       1.912e-01         -0.0056
  97       1.629e+01      -2.149e+01       9.773e-02           0.073           0.008          -0.997       1.947e-01         -0.0261
  98       1.593e+01      -2.149e+01       8.258e-02           0.010          -0.026          -1.000       1.886e-01          0.0412
  99       1.559e+01      -2.149e+01       8.677e-02          -0.036          -0.053          -0.998       1.722e-01          0.1527
 100       1.529e+01      -2.149e+01       1.042e-01          -0.083          -0.082          -0.993       1.462e-01          0.3016
 101       1.504e+01      -2.149e+01       1.324e-01          -0.158          -0.129          -0.979       1.125e-01          0.4954
 102       1.488e+01      -2.149e+01       1.726e-01          -0.330          -0.243          -0.912       7.526e-02          0.6042
 103       1.479e+01      -2.149e+01       2.293e-01          -0.723          -0.502          -0.475       4.871e-02         -0.6634
 104       1.479e+01      -2.149e+01       2.958e-01          -0.723          -0.491           0.486       4.867e-02         -3.8151
 105       1.488e+01      -2.149e+01       3.527e-01          -0.332          -0.222           0.917       7.527e-02         -3.7736
 106       1.504e+01      -2.149e+01       3.923e-01          -0.151          -0.101           0.983       1.123e-01         -1.9277
 107       1.529e+01      -2.149e+01       4.197e-01          -0.082          -0.056           0.995       1.461e-01         -1.1834
 108       1.559e+01      -2.149e+01       4.371e-01          -0.037          -0.029           0.999       1.721e-01         -0.8339
 109       1.593e+01      -2.149e+01       4.440e-01          -0.005          -0.010           1.000       1.885e-01         -0.6315
 110       1.629e+01      -2.149e+01       4.396e-01           0.028           0.008           1.000       1.941e-01         -0.5061
 111       1.665e+01      -2.149e+01       4.217e-01           0.071           0.029           0.997       1.889e-01         -0.3938
 112       1.699e+01      -2.149e+01       3.914e-01           0.108           0.047           0.993       1.730e-01         -0.2743
 113       1.729e+01      -2.149e+01       3.552e-01           0.133           0.058           0.989       1.468e-01         -0.1763
 114       1.753e+01      -2.149e+01       3.205e-01           0.153           0.065           0.986       1.117e-01         -0.1023
 115       1.770e+01      -2.149e+01       2.929e-01           0.174           0.073           0.982       7.004e-02         -0.0683
 116       1.779e+01      -2.149e+01       2.728e-01           0.357           0.139           0.924       2.529e-02          0.1121
Strip 5
 117       1.757e+01      -2.089e+01       2.564e-01           0.026          -0.003          -1.000       3.176e-02          0.0777
 118       1.748e+01      -2.089e+01       2.622e-01          -0.091          -0.045          -0.995       9.384e-02          0.2233
 119       1.730e+01      -2.089e+01       2.648e-01           0.033           0.002          -0.999       1.497e-01          0.2819
 120       1.704e+01      -2.089e+01       2.400e-01           0.143           0.046          -0.989       1.995e-01          0.2341
 121       1.672e+01      -2.089e+01       1.865e-01           0.184           0.063          -0.981       2.379e-01          0.1388
 122       1.636e+01      -2.089e+01       1.240e-01           0.156           0.050          -0.986       2.594e-01          0.0445
 123       1.597e+01      -2.089e+01       7.967e-02           0.073           0.008          -0.997       2.642e-01          0.0281
 124       1.559e+01      -2.089e+01       6.354e-02           0.010          -0.026          -1.000       2.558e-01          0.1006
 125       1.523e+01      -2.089e+01       6.799e-02          -0.036          -0.053          -0.998       2.336e-01          0.2133
 126       1.491e+01      -2.089e+01       8.652e-02          -0.083          -0.082          -0.993       1.984e-01          0.3567
 127       1.465e+01      -2.089e+01       1.166e-01          -0.158          -0.129          -0.979       1.527e-01          0.5380
 128       1.447e+01      -2.089e+01       1.595e-01          -0.330          -0.243          -0.912       1.021e-01          0.6090
 129       1.438e+01      -2.089e+01       2.198e-01          -0.722          -0.502          -0.475       6.610e-02         -0.7758
 130       1.438e+01      -2.089e+01       2.906e-01          -0.723          -0.491           0.486       6.601e-02         -4.0485
 131       1.447e+01      -2.089e+01       3.512e-01          -0.332          -0.222           0.917       1.021e-01         -3.9593
 132       1.465e+01      -2.089e+01       3.934e-01          -0.151          -0.101           0.983       1.523e-01         -2.0342
 133       1.491e+01      -2.089e+01       4.226e-01          -0.082          -0.056           0.995       1.982e-01         -1.2665
 134       1.523e+01      -2.089e+01       4.411e-01          -0.037          -0.029           0.999       2.335e-01         -0.9079
 135       1.559e+01      -2.089e+01       4.484e-01          -0.005          -0.010           1.000       2.557e-01         -0.6958
 136       1.597e+01      -2.089e+01       4.438e-01           0.028           0.008           1.000       2.634e-01         -0.5566
 137       1.636e+01      -2.089e+01       4.247e-01           0.071           0.029           0.997       2.563e-01         -0.4272
 138       1.672e+01      -2.089e+01       3.924e-01           0.108           0.047           0.993       2.347e-01         -0.2906
 139       1.704e+01      -2.089e+01       3.539e-01           0.133           0.058           0.989       1.991e-01         -0.1759
 140       1.730e+01      -2.089e+01       3.170e-01           0.153           0.065           0.986       1.516e-01         -0.0876
 141       1.748e+01      -2.089e+01       2.875e-01           0.174           0.073           0.982       9.503e-02         -0.0427
 142       1.757e+01      -2.089e+01       2.661e-01           0.357           0.139           0.924       3.432e-02          0.1365
Strip 6
 143       1.730e+01      -2.015e+01       2.474e-01           0.026          -0.003          -1.000       4.126e-02          0.0929
 144       1.720e+01      -2.015e+01       2.536e-01          -0.091          -0.045          -0.995       1.219e-01          0.2444
 145       1.701e+01      -2.015e+01       2.564e-01           0.033           0.002          -0.999       1.945e-01          0.3080
 146       1.673e+01      -2.015e+01       2.298e-01           0.143           0.046          -0.989       2.592e-01          0.2625
 147       1.639e+01      -2.015e+01       1.722e-01           0.184           0.063          -0.981       3.091e-01          0.1688
 148       1.600e+01      -2.015e+01       1.051e-01           0.156           0.050          -0.986       3.371e-01          0.0766
 149       1.558e+01      -2.015e+01       5.732e-02           0.073           0.008          -0.997       3.432e-01          0.0623
 150       1.517e+01      -2.015e+01       3.997e-02           0.010          -0.026          -1.000       3.324e-01          0.1349
 151       1.478e+01      -2.015e+01       4.477e-02          -0.036          -0.053          -0.998       3.036e-01          0.2449
 152       1.444e+01      -2.015e+01       6.469e-02          -0.083          -0.082          -0.993       2.578e-01          0.3833
 153       1.416e+01      -2.015e+01       9.707e-02          -0.158          -0.129          -0.979       1.984e-01          0.5576
 154       1.397e+01      -2.015e+01       1.431e-01          -0.330          -0.243          -0.912       1.327e-01          0.6104
 155       1.387e+01      -2.015e+01       2.081e-01          -0.722          -0.502          -0.476       8.591e-02         -0.8272
 156       1.387e+01      -2.015e+01       2.842e-01          -0.723          -0.491           0.485       8.576e-02         -4.1563
 157       1.397e+01      -2.014e+01       3.493e-01          -0.332          -0.222           0.917       1.326e-01         -4.0467
 158       1.416e+01      -2.014e+01       3.948e-01          -0.151          -0.101           0.983       1.978e-01         -2.0865
 159       1.444e+01      -2.014e+01       4.261e-01          -0.082          -0.056           0.995       2.575e-01         -1.3093
 160       1.478e+01      -2.014e+01       4.460e-01          -0.037          -0.029           0.999       3.034e-01         -0.9485
 161       1.517e+01      -2.014e+01       4.539e-01          -0.005          -0.010           1.000       3.322e-01         -0.7350
 162       1.558e+01      -2.014e+01       4.489e-01           0.028           0.008           1.000       3.423e-01         -0.5921
 163       1.600e+01      -2.014e+01       4.284e-01           0.071           0.029           0.997       3.331e-01         -0.4560
 164       1.639e+01      -2.014e+01       3.936e-01           0.108           0.047           0.993       3.050e-01         -0.3104
 165       1.673e+01      -2.014e+01       3.522e-01           0.133           0.058           0.989       2.587e-01         -0.1861
 166       1.701e+01      -2.015e+01       3.125e-01           0.153           0.065           0.986       1.970e-01         -0.0894
 167       1.720e+01      -2.015e+01       2.808e-01           0.174           0.073           0.982       1.235e-01         -0.0375
 168       1.730e+01      -2.015e+01       2.578e-01           0.357           0.139           0.924       4.460e-02          0.1418
Strip 7
 169       1.698e+01      -1.926e+01       2.367e-01           0.026          -0.003          -1.000       5.209e-02          0.1005
 170       1.687e+01      -1.926e+01       2.434e-01          -0.091          -0.045          -0.995       1.539e-01          0.2556
 171       1.666e+01      -1.926e+01       2.465e-01           0.033           0.002          -0.999       2.455e-01          0.3223
 172       1.636e+01      -1.926e+01       2.176e-01           0.143           0.046          -0.989       3.272e-01          0.2788
 173       1.599e+01      -1.926e+01       1.553e-01           0.184           0.063          -0.981       3.902e-01          0.1863
 174       1.557e+01      -1.926e+01       8.255e-02           0.156           0.050          -0.986       4.255e-01          0.0951
 175       1.512e+01      -1.927e+01       3.085e-02           0.073           0.008          -0.997       4.333e-01          0.0809
 176       1.467e+01      -1.927e+01       1.206e-02           0.010          -0.026          -1.000       4.196e-01          0.1522
 177       1.425e+01      -1.927e+01       1.724e-02          -0.036          -0.053          -0.998       3.832e-01          0.2597
 178       1.388e+01      -1.927e+01       3.883e-02          -0.083          -0.082          -0.993       3.254e-01          0.3947
 179       1.358e+01      -1.926e+01       7.390e-02          -0.158          -0.129          -0.979       2.505e-01          0.5654
 180       1.337e+01      -1.926e+01       1.238e-01          -0.330          -0.243          -0.912       1.676e-01          0.6145
 181       1.326e+01      -1.926e+01       1.941e-01          -0.722          -0.502          -0.476       1.085e-01         -0.8272
 182       1.326e+01      -1.926e+01       2.766e-01          -0.724          -0.491           0.485       1.082e-01         -4.1659
 183       1.337e+01      -1.926e+01       3.471e-01          -0.332          -0.222           0.917       1.674e-01         -4.0598
 184       1.358e+01      -1.926e+01       3.963e-01          -0.152          -0.101           0.983       2.497e-01         -2.0998
 185       1.388e+01      -1.926e+01       4.303e-01          -0.082          -0.056           0.995       3.250e-01         -1.3242
 186       1.425e+01      -1.926e+01       4.518e-01          -0.037          -0.029           0.999       3.829e-01         -0.9654
 187       1.467e+01      -1.926e+01       4.604e-01          -0.005          -0.010           1.000       4.194e-01         -0.7535
 188       1.512e+01      -1.926e+01       4.550e-01           0.028           0.008           1.000       4.321e-01         -0.6107
 189       1.557e+01      -1.926e+01       4.328e-01           0.071           0.029           0.997       4.205e-01         -0.4728
 190       1.599e+01      -1.926e+01       3.951e-01           0.108           0.047           0.993       3.850e-01         -0.3234
 191       1.636e+01      -1.926e+01       3.502e-01           0.133           0.058           0.989       3.266e-01         -0.1943
 192       1.666e+01      -1.926e+01       3.073e-01           0.153           0.065           0.986       2.487e-01         -0.0932
 193       1.687e+01      -1.926e+01       2.729e-01           0.174           0.073           0.982       1.559e-01         -0.0372
 194       1.698e+01      -1.926e+01       2.480e-01           0.357           0.139           0.924       5.631e-02          0.1426
Strip 8
 195       1.662e+01      -1.825e+01       2.245e-01           0.026          -0.003          -1.000       6.434e-02          0.1046
 196       1.650e+01      -1.825e+01       2.317e-01          -0.091          -0.045          -0.995       1.902e-01          0.2618
 197       1.627e+01      -1.825e+01       2.351e-01           0.033           0.002          -0.999       3.033e-01          0.3305
 198       1.594e+01      -1.825e+01       2.037e-01           0.143           0.046          -0.989       4.041e-01          0.2879
 199       1.554e+01      -1.825e+01       1.359e-01           0.184           0.063          -0.981       4.819e-01          0.1957
 200       1.508e+01      -1.825e+01       5.668e-02           0.156           0.050          -0.986       5.255e-01          0.1043
 201       1.459e+01      -1.825e+01       4.236e-04           0.073           0.008          -0.997       5.352e-01          0.0893
 202       1.410e+01      -1.825e+01      -2.003e-02           0.010          -0.026          -1.000       5.184e-01          0.1590
 203       1.364e+01      -1.825e+01      -1.438e-02          -0.036          -0.053          -0.998       4.734e-01          0.2643
 204       1.324e+01      -1.825e+01       9.107e-03          -0.083          -0.082          -0.993       4.020e-01          0.3971
 205       1.291e+01      -1.825e+01       4.727e-02          -0.158          -0.129          -0.979       3.094e-01          0.5662
 206       1.269e+01      -1.825e+01       1.016e-01          -0.330          -0.243          -0.912       2.071e-01          0.6217
 207       1.257e+01      -1.825e+01       1.781e-01          -0.722          -0.502          -0.477       1.340e-01         -0.7884
 208       1.257e+01      -1.825e+01       2.679e-01          -0.724          -0.491           0.484       1.337e-01         -4.1026
 209       1.269e+01      -1.825e+01       3.446e-01          -0.332          -0.222           0.917       2.067e-01         -4.0186
 210       1.291e+01      -1.825e+01       3.981e-01          -0.152          -0.101           0.983       3.085e-01         -2.0854
 211       1.324e+01      -1.825e+01       4.351e-01          -0.082          -0.056           0.995       4.015e-01         -1.3202
 212       1.364e+01      -1.825e+01       4.585e-01          -0.037          -0.029           0.999       4.730e-01         -0.9667
 213       1.410e+01      -1.825e+01       4.679e-01          -0.005          -0.010           1.000       5.181e-01         -0.7581
 214       1.459e+01      -1.825e+01       4.620e-01           0.028           0.008           1.000       5.337e-01         -0.6171
 215       1.508e+01      -1.825e+01       4.378e-01           0.071           0.029           0.997       5.195e-01         -0.4796
 216       1.554e+01      -1.825e+01       3.968e-01           0.108           0.047           0.993       4.756e-01         -0.3293
 217       1.594e+01      -1.825e+01       3.480e-01           0.133           0.058           0.989       4.035e-01         -0.1983
 218       1.627e+01      -1.825e+01       3.012e-01           0.153           0.065           0.986       3.073e-01         -0.0952
 219       1.650e+01      -1.825e+01       2.638e-01           0.174           0.073           0.982       1.926e-01         -0.0372
 220       1.662e+01      -1.825e+01       2.368e-01           0.357           0.139           0.924       6.957e-02          0.1425
Strip 9
 221       1.621e+01      -1.711e+01       2.107e-01           0.026          -0.003          -1.000       7.808e-02          0.1069
 222       1.608e+01      -1.711e+01       2.186e-01          -0.091          -0.045          -0.995       2.308e-01          0.2654
 223       1.583e+01      -1.711e+01       2.223e-01           0.033           0.002          -0.999       3.681e-01          0.3351
 224       1.547e+01      -1.711e+01       1.880e-01           0.143           0.046          -0.989       4.904e-01          0.2928
 225       1.503e+01      -1.711e+01       1.140e-01           0.184           0.063          -0.981       5.848e-01          0.2002
 226       1.453e+01      -1.711e+01       2.763e-02           0.156           0.050          -0.986       6.377e-01          0.1076
 227       1.400e+01      -1.711e+01      -3.374e-02           0.073           0.008          -0.997       6.495e-01          0.0911
 228       1.346e+01      -1.711e+01      -5.606e-02           0.010          -0.026          -1.000       6.290e-01          0.1593
 229       1.296e+01      -1.711e+01      -4.990e-02          -0.036          -0.053          -0.998       5.745e-01          0.2627
 230       1.252e+01      -1.711e+01      -2.427e-02          -0.083          -0.082          -0.993       4.879e-01          0.3935
 231       1.217e+01      -1.711e+01       1.737e-02          -0.158          -0.129          -0.979       3.755e-01          0.5623
 232       1.192e+01      -1.711e+01       7.660e-02          -0.330          -0.243          -0.912       2.513e-01          0.6310
 233       1.179e+01      -1.711e+01       1.601e-01          -0.722          -0.502          -0.477       1.627e-01         -0.7223
 234       1.179e+01      -1.711e+01       2.580e-01          -0.724          -0.491           0.484       1.622e-01         -3.9868
 235       1.192e+01      -1.711e+01       3.418e-01          -0.332          -0.222           0.917       2.508e-01         -3.9381
 236       1.217e+01      -1.711e+01       4.002e-01          -0.152          -0.101           0.983       3.743e-01         -2.0521
 237       1.252e+01      -1.711e+01       4.405e-01          -0.082          -0.056           0.995       4.872e-01         -1.3033
 238       1.296e+01      -1.711e+01       4.661e-01          -0.037          -0.029           0.999       5.740e-01         -0.9576
 239       1.346e+01      -1.711e+01       4.763e-01          -0.005          -0.010           1.000       6.287e-01         -0.7536
 240       1.400e+01      -1.711e+01       4.698e-01           0.028           0.008           1.000       6.477e-01         -0.6155
 241       1.453e+01      -1.711e+01       4.435e-01           0.071           0.029           0.997       6.304e-01         -0.4797
 242       1.503e+01      -1.711e+01       3.987e-01           0.108           0.047           0.993       5.772e-01         -0.3301
 243       1.547e+01      -1.711e+01       3.455e-01           0.133           0.058           0.989       4.897e-01         -0.1989
 244       1.583e+01      -1.711e+01       2.944e-01           0.153           0.065           0.986       3.729e-01         -0.0954
 245       1.608e+01      -1.711e+01       2.536e-01           0.174           0.073           0.982       2.337e-01         -0.0367
 246       1.621e+01      -1.711e+01       2.241e-01           0.357           0.139           0.924       8.443e-02          0.1425
Strip 10
 247       1.575e+01      -1.586e+01       1.955e-01           0.026          -0.003          -1.000       9.328e-02          0.1081
 248       1.561e+01      -1.586e+01       2.042e-01          -0.091          -0.045          -0.995       2.757e-01          0.2674
 249       1.534e+01      -1.586e+01       2.082e-01           0.033           0.002          -0.999       4.397e-01          0.3376
 250       1.495e+01      -1.586e+01       1.708e-01           0.143           0.046          -0.989       5.858e-01          0.2952
 251       1.447e+01      -1.586e+01       8.993e-02           0.184           0.063          -0.981       6.986e-01          0.2017
 252       1.392e+01      -1.586e+01      -4.394e-03           0.156           0.050          -0.986       7.618e-01          0.1074
 253       1.334e+01      -1.586e+01      -7.142e-02           0.073           0.008          -0.997       7.759e-01          0.0889
 254       1.276e+01      -1.586e+01      -9.579e-02           0.010          -0.026          -1.000       7.515e-01          0.1553
 255       1.221e+01      -1.586e+01      -8.906e-02          -0.036          -0.053          -0.998       6.864e-01          0.2570
 256       1.173e+01      -1.586e+01      -6.107e-02          -0.083          -0.082          -0.993       5.829e-01          0.3861
 257       1.134e+01      -1.586e+01      -1.560e-02          -0.158          -0.129          -0.979       4.487e-01          0.5550
 258       1.107e+01      -1.586e+01       4.907e-02          -0.330          -0.243          -0.912       3.003e-01          0.6412
 259       1.093e+01      -1.586e+01       1.403e-01          -0.722          -0.502          -0.477       1.944e-01         -0.6374
 260       1.093e+01      -1.586e+01       2.472e-01          -0.724          -0.492           0.484       1.937e-01         -3.8342
 261       1.107e+01      -1.586e+01       3.386e-01          -0.332          -0.222           0.917       2.996e-01         -3.8301
 262       1.134e+01      -1.586e+01       4.024e-01          -0.152          -0.101           0.983       4.471e-01         -2.0049
 263       1.173e+01      -1.586e+01       4.464e-01          -0.082          -0.056           0.995       5.820e-01         -1.2776
 264       1.221e+01      -1.585e+01       4.744e-01          -0.037          -0.029           0.999       6.858e-01         -0.9415
 265       1.276e+01      -1.585e+01       4.855e-01          -0.005          -0.010           1.000       7.511e-01         -0.7432
 266       1.334e+01      -1.585e+01       4.785e-01           0.028           0.008           1.000       7.738e-01         -0.6088
 267       1.392e+01      -1.586e+01       4.497e-01           0.071           0.029           0.997       7.532e-01         -0.4755
 268       1.447e+01      -1.586e+01       4.009e-01           0.108           0.047           0.993       6.896e-01         -0.3275
 269       1.495e+01      -1.586e+01       3.427e-01           0.133           0.058           0.989       5.851e-01         -0.1972
 270       1.534e+01      -1.586e+01       2.869e-01           0.153           0.065           0.986       4.455e-01         -0.0942
 271       1.561e+01      -1.586e+01       2.424e-01           0.174           0.073           0.982       2.793e-01         -0.0358
 272       1.575e+01      -1.586e+01       2.101e-01           0.357           0.139           0.924       1.009e-01          0.1425
Strip 11
 273       1.526e+01      -1.449e+01       1.790e-01           0.026          -0.003          -1.000       1.099e-01          0.1087
 274       1.511e+01      -1.449e+01       1.885e-01          -0.091          -0.045          -0.995       3.248e-01          0.2686
 275       1.481e+01      -1.449e+01       1.929e-01           0.033           0.002          -0.999       5.179e-01          0.3390
 276       1.439e+01      -1.449e+01       1.520e-01           0.143           0.046          -0.989       6.900e-01          0.2962
 277       1.386e+01      -1.449e+01       6.377e-02           0.184           0.063          -0.981       8.229e-01          0.2014
 278       1.326e+01      -1.449e+01      -3.919e-02           0.156           0.050          -0.986       8.973e-01          0.1048
 279       1.263e+01      -1.449e+01      -1.123e-01           0.073           0.008          -0.997       9.139e-01          0.0840
 280       1.199e+01      -1.449e+01      -1.389e-01           0.010          -0.026          -1.000       8.852e-01          0.1485
 281       1.140e+01      -1.449e+01      -1.316e-01          -0.036          -0.053          -0.998       8.085e-01          0.2484
 282       1.087e+01      -1.449e+01      -1.011e-01          -0.083          -0.082          -0.993       6.867e-01          0.3757
 283       1.045e+01      -1.449e+01      -5.142e-02          -0.158          -0.129          -0.979       5.285e-01          0.5448
 284       1.015e+01      -1.449e+01       1.918e-02          -0.330          -0.243          -0.912       3.538e-01          0.6511
 285       9.996e+00      -1.449e+01       1.187e-01          -0.721          -0.501          -0.478       2.290e-01         -0.5404
 286       9.996e+00      -1.449e+01       2.354e-01          -0.724          -0.492           0.483       2.281e-01         -3.6548
 287       1.015e+01      -1.449e+01       3.352e-01          -0.332          -0.222           0.917       3.529e-01         -3.7014
 288       1.045e+01      -1.449e+01       4.049e-01          -0.152          -0.101           0.983       5.266e-01         -1.9479
 289       1.087e+01      -1.449e+01       4.529e-01          -0.082          -0.056           0.995       6.856e-01         -1.2453
 290       1.140e+01      -1.449e+01       4.834e-01          -0.037          -0.029           0.999       8.078e-01         -0.9206
 291       1.199e+01      -1.449e+01       4.955e-01          -0.005          -0.010           1.000       8.847e-01         -0.7288
 292       1.263e+01      -1.449e+01       4.879e-01           0.028           0.008           1.000       9.115e-01         -0.5986
 293       1.326e+01      -1.449e+01       4.565e-01           0.071           0.029           0.997       8.872e-01         -0.4685
 294       1.386e+01      -1.449e+01       4.032e-01           0.108           0.047           0.993       8.123e-01         -0.3227
 295       1.439e+01      -1.449e+01       3.396e-01           0.133           0.058           0.989       6.892e-01         -0.1941
 296       1.481e+01      -1.449e+01       2.788e-01           0.153           0.065           0.986       5.248e-01         -0.0921
 297       1.511e+01      -1.449e+01       2.302e-01           0.174           0.073           0.982       3.290e-01         -0.0345
 298       1.526e+01      -1.449e+01       1.950e-01           0.357           0.139           0.924       1.188e-01          0.1427
Strip 12
 299       1.473e+01      -1.303e+01       1.613e-01           0.026          -0.003          -1.000       1.277e-01          0.1090
 300       1.456e+01      -1.303e+01       1.716e-01          -0.091          -0.045          -0.995       3.775e-01          0.2692
 301       1.424e+01      -1.303e+01       1.764e-01           0.033           0.002          -0.999       6.021e-01          0.3397
 302       1.378e+01      -1.303e+01       1.319e-01           0.143           0.046          -0.989       8.021e-01          0.2963
 303       1.321e+01      -1.303e+01       3.571e-02           0.184           0.063          -0.981       9.565e-01          0.1999
 304       1.255e+01      -1.303e+01      -7.650e-02           0.156           0.050          -0.986       1.043e+00          0.1007
 305       1.186e+01      -1.303e+01      -1.562e-01           0.073           0.008          -0.997       1.062e+00          0.0772
 306       1.117e+01      -1.303e+01      -1.852e-01           0.010          -0.026          -1.000       1.029e+00          0.1397
 307       1.052e+01      -1.303e+01      -1.772e-01          -0.036          -0.053          -0.998       9.399e-01          0.2376
 308       9.947e+00      -1.303e+01      -1.439e-01          -0.083          -0.082          -0.993       7.982e-01          0.3630
 309       9.485e+00      -1.303e+01      -8.984e-02          -0.158          -0.129          -0.979       6.144e-01          0.5322
 310       9.162e+00      -1.303e+01      -1.289e-02          -0.329          -0.242          -0.912       4.113e-01          0.6598
 311       8.995e+00      -1.303e+01       9.559e-02          -0.721          -0.501          -0.478       2.663e-01         -0.4353
 312       8.995e+00      -1.303e+01       2.228e-01          -0.724          -0.492           0.483       2.651e-01         -3.4555
 313       9.162e+00      -1.303e+01       3.316e-01          -0.333          -0.222           0.917       4.101e-01         -3.5568
 314       9.485e+00      -1.303e+01       4.075e-01          -0.152          -0.101           0.983       6.122e-01         -1.8830
 315       9.947e+00      -1.303e+01       4.598e-01          -0.082          -0.056           0.995       7.969e-01         -1.2083
 316       1.052e+01      -1.303e+01       4.931e-01          -0.037          -0.029           0.999       9.390e-01         -0.8962
 317       1.117e+01      -1.303e+01       5.063e-01          -0.005          -0.010           1.000       1.028e+00         -0.7115
 318       1.186e+01      -1.303e+01       4.980e-01           0.028           0.008           1.000       1.060e+00         -0.5861
 319       1.255e+01      -1.303e+01       4.637e-01           0.071           0.029           0.997       1.031e+00         -0.4595
 320       1.321e+01      -1.303e+01       4.056e-01           0.108           0.047           0.993       9.443e-01         -0.3166
 321       1.378e+01      -1.303e+01       3.364e-01           0.133           0.057           0.989       8.012e-01         -0.1899
 322       1.424e+01      -1.303e+01       2.701e-01           0.153           0.065           0.986       6.101e-01         -0.0895
 323       1.456e+01      -1.303e+01       2.171e-01           0.174           0.073           0.982       3.824e-01         -0.0330
 324       1.473e+01      -1.303e+01       1.787e-01           0.357           0.139           0.924       1.382e-01          0.1430
Strip 13
 325       1.417e+01      -1.148e+01       1.426e-01           0.026          -0.003          -1.000       1.466e-01          0.1089
 326       1.399e+01      -1.148e+01       1.538e-01          -0.091          -0.045          -0.995       4.334e-01          0.2696
 327       1.364e+01      -1.148e+01       1.590e-01           0.033           0.002          -0.999       6.911e-01          0.3400
 328       1.314e+01      -1.148e+01       1.105e-01           0.143           0.046          -0.989       9.207e-01          0.2958
 329       1.251e+01      -1.148e+01       5.944e-03           0.184           0.063          -0.981       1.098e+00          0.1976
 330       1.180e+01      -1.148e+01      -1.161e-01           0.156           0.050          -0.986       1.197e+00          0.0954
 331       1.105e+01      -1.148e+01      -2.028e-01           0.073           0.008          -0.997       1.219e+00          0.0690
 332       1.030e+01      -1.148e+01      -2.343e-01           0.010          -0.026          -1.000       1.181e+00          0.1292
 333       9.592e+00      -1.148e+01      -2.256e-01          -0.036          -0.053          -0.998       1.079e+00          0.2249
 334       8.968e+00      -1.148e+01      -1.894e-01          -0.083          -0.082          -0.993       9.164e-01          0.3482
 335       8.466e+00      -1.148e+01      -1.306e-01          -0.158          -0.129          -0.979       7.054e-01          0.5172
 336       8.114e+00      -1.148e+01      -4.692e-02          -0.329          -0.242          -0.913       4.722e-01          0.6665
 337       7.933e+00      -1.148e+01       7.107e-02          -0.721          -0.501          -0.478       3.057e-01         -0.3246
 338       7.933e+00      -1.148e+01       2.094e-01          -0.724          -0.492           0.483       3.043e-01         -3.2398
 339       8.114e+00      -1.148e+01       3.277e-01          -0.333          -0.222           0.917       4.708e-01         -3.3986
 340       8.466e+00      -1.148e+01       4.103e-01          -0.152          -0.101           0.983       7.027e-01         -1.8114
 341       8.968e+00      -1.148e+01       4.672e-01          -0.082          -0.056           0.995       9.147e-01         -1.1673
 342       9.592e+00      -1.148e+01       5.034e-01          -0.037          -0.029           0.999       1.078e+00         -0.8689
 343       1.030e+01      -1.148e+01       5.177e-01          -0.005          -0.010           1.000       1.181e+00         -0.6921
 344       1.105e+01      -1.148e+01       5.087e-01           0.028           0.008           1.000       1.216e+00         -0.5719
 345       1.180e+01      -1.148e+01       4.714e-01           0.071           0.029           0.997       1.184e+00         -0.4493
 346       1.251e+01      -1.148e+01       4.082e-01           0.108           0.047           0.993       1.084e+00         -0.3095
 347       1.314e+01      -1.148e+01       3.329e-01           0.133           0.057           0.989       9.197e-01         -0.1852
 348       1.364e+01      -1.148e+01       2.608e-01           0.153           0.065           0.986       7.004e-01         -0.0865
 349       1.399e+01      -1.148e+01       2.032e-01           0.174           0.073           0.982       4.390e-01         -0.0314
 350       1.417e+01      -1.148e+01       1.615e-01           0.357           0.139           0.924       1.586e-01          0.1430
Strip 14
 351       1.358e+01      -9.849e+00       1.228e-01           0.026          -0.003          -1.000       1.663e-01          0.1085
 352       1.339e+01      -9.849e+00       1.350e-01          -0.091          -0.045          -0.995       4.916e-01          0.2696
 353       1.300e+01      -9.849e+00       1.406e-01           0.033           0.002          -0.999       7.839e-01          0.3400
 354       1.246e+01      -9.849e+00       8.810e-02           0.143           0.046          -0.989       1.044e+00          0.2950
 355       1.178e+01      -9.849e+00      -2.533e-02           0.184           0.063          -0.981       1.245e+00          0.1947
 356       1.102e+01      -9.849e+00      -1.577e-01           0.156           0.050          -0.986       1.358e+00          0.0893
 357       1.020e+01      -9.849e+00      -2.517e-01           0.073           0.008          -0.997       1.383e+00          0.0596
 358       9.384e+00      -9.849e+00      -2.859e-01           0.010          -0.026          -1.000       1.340e+00          0.1174
 359       8.616e+00      -9.849e+00      -2.765e-01          -0.036          -0.053          -0.998       1.224e+00          0.2108
 360       7.940e+00      -9.849e+00      -2.372e-01          -0.083          -0.082          -0.993       1.039e+00          0.3315
 361       7.395e+00      -9.849e+00      -1.734e-01          -0.158          -0.129          -0.979       8.001e-01          0.4995
 362       7.013e+00      -9.849e+00      -8.266e-02          -0.329          -0.242          -0.913       5.357e-01          0.6704
 363       6.817e+00      -9.849e+00       4.530e-02          -0.721          -0.501          -0.478       3.468e-01         -0.2100
 364       6.817e+00      -9.848e+00       1.954e-01          -0.725          -0.492           0.483       3.451e-01         -3.0088
 365       7.013e+00      -9.848e+00       3.237e-01          -0.333          -0.222           0.916       5.339e-01         -3.2270
 366       7.395e+00      -9.848e+00       4.132e-01          -0.152          -0.101           0.983       7.969e-01         -1.7334
 367       7.940e+00      -9.848e+00       4.749e-01          -0.082          -0.056           0.995       1.037e+00         -1.1225
 368       8.616e+00      -9.848e+00       5.141e-01          -0.037          -0.029           0.999       1.222e+00         -0.8389
 369       9.384e+00      -9.848e+00       5.298e-01          -0.005          -0.010           1.000       1.339e+00         -0.6709
 370       1.020e+01      -9.848e+00       5.199e-01           0.028           0.008           1.000       1.380e+00         -0.5564
 371       1.102e+01      -9.848e+00       4.795e-01           0.071           0.029           0.997       1.343e+00         -0.4382
 372       1.178e+01      -9.848e+00       4.110e-01           0.108           0.047           0.993       1.230e+00         -0.3019
 373       1.246e+01      -9.848e+00       3.293e-01           0.133           0.057           0.989       1.043e+00         -0.1801
 374       1.300e+01      -9.848e+00       2.511e-01           0.153           0.065           0.986       7.944e-01         -0.0834
 375       1.339e+01      -9.848e+00       1.886e-01           0.174           0.073           0.982       4.979e-01         -0.0300
 376       1.358e+01      -9.849e+00       1.434e-01           0.357           0.139           0.924       1.799e-01          0.1429
Strip 15
 377       1.297e+01      -8.151e+00       1.023e-01           0.026          -0.003          -1.000       1.864e-01          0.1079
 378       1.276e+01      -8.151e+00       1.154e-01          -0.091          -0.045          -0.995       5.511e-01          0.2695
 379       1.234e+01      -8.151e+00       1.216e-01           0.033           0.002          -0.999       8.788e-01          0.3399
 380       1.176e+01      -8.151e+00       6.474e-02           0.143           0.046          -0.989       1.171e+00          0.2940
 381       1.102e+01      -8.152e+00      -5.789e-02           0.184           0.063          -0.981       1.396e+00          0.1914
 382       1.019e+01      -8.152e+00      -2.010e-01           0.156           0.050          -0.986       1.522e+00          0.0824
 383       9.312e+00      -8.152e+00      -3.027e-01           0.073           0.008          -0.997       1.551e+00          0.0492
 384       8.430e+00      -8.152e+00      -3.396e-01           0.010          -0.026          -1.000       1.502e+00          0.1044
 385       7.600e+00      -8.152e+00      -3.294e-01          -0.036          -0.053          -0.998       1.372e+00          0.1951
 386       6.869e+00      -8.152e+00      -2.870e-01          -0.083          -0.082          -0.993       1.165e+00          0.3128
 387       6.280e+00      -8.152e+00      -2.180e-01          -0.158          -0.129          -0.979       8.971e-01          0.4791
 388       5.867e+00      -8.152e+00      -1.199e-01          -0.329          -0.242          -0.913       6.006e-01          0.6707
 389       5.654e+00      -8.151e+00       1.848e-02          -0.721          -0.501          -0.479       3.888e-01         -0.0914
 390       5.654e+00      -8.151e+00       1.807e-01          -0.725          -0.492           0.483       3.869e-01         -2.7600
 391       5.867e+00      -8.151e+00       3.194e-01          -0.333          -0.222           0.916       5.985e-01         -3.0396
 392       6.280e+00      -8.151e+00       4.162e-01          -0.152          -0.101           0.983       8.934e-01         -1.6479
 393       6.869e+00      -8.151e+00       4.830e-01          -0.082          -0.056           0.995       1.163e+00         -1.0733
 394       7.600e+00      -8.151e+00       5.254e-01          -0.037          -0.029           0.999       1.371e+00         -0.8066
 395       8.430e+00      -8.151e+00       5.423e-01          -0.005          -0.010           1.000       1.501e+00         -0.6483
 396       9.312e+00      -8.151e+00       5.316e-01           0.028           0.008           1.000       1.547e+00         -0.5402
 397       1.019e+01      -8.151e+00       4.880e-01           0.071           0.029           0.997       1.506e+00         -0.4269
 398       1.102e+01      -8.151e+00       4.138e-01           0.108           0.047           0.993       1.379e+00         -0.2944
 399       1.176e+01      -8.151e+00       3.256e-01           0.133           0.057           0.989       1.170e+00         -0.1752
 400       1.234e+01      -8.151e+00       2.410e-01           0.153           0.065           0.986       8.907e-01         -0.0805
 401       1.276e+01      -8.151e+00       1.734e-01           0.174           0.073           0.982       5.583e-01         -0.0287
 402       1.297e+01      -8.151e+00       1.245e-01           0.357           0.139           0.924       2.017e-01          0.1424
Strip 16
 403       1.234e+01      -6.398e+00       8.109e-02           0.026          -0.003          -1.000       2.067e-01          0.1069
 404       1.211e+01      -6.398e+00       9.525e-02          -0.091          -0.045          -0.995       6.110e-01          0.2691
 405       1.166e+01      -6.398e+00       1.018e-01           0.033           0.002          -0.999       9.743e-01          0.3396
 406       1.103e+01      -6.398e+00       4.062e-02           0.143           0.046          -0.989       1.298e+00          0.2928
 407       1.024e+01      -6.399e+00      -9.152e-02           0.184           0.063          -0.981       1.547e+00          0.1877
 408       9.346e+00      -6.399e+00      -2.457e-01           0.156           0.050          -0.986       1.687e+00          0.0749
 409       8.396e+00      -6.399e+00      -3.553e-01           0.073           0.008          -0.997       1.719e+00          0.0380
 410       7.445e+00      -6.399e+00      -3.951e-01           0.010          -0.026          -1.000       1.665e+00          0.0904
 411       6.550e+00      -6.399e+00      -3.841e-01          -0.036          -0.053          -0.998       1.521e+00          0.1781
 412       5.763e+00      -6.399e+00      -3.384e-01          -0.083          -0.082          -0.993       1.292e+00          0.2922
 413       5.128e+00      -6.399e+00      -2.640e-01          -0.158          -0.129          -0.979       9.945e-01          0.4555
 414       4.683e+00      -6.399e+00      -1.583e-01          -0.329          -0.242          -0.913       6.659e-01          0.6665
 415       4.454e+00      -6.399e+00      -9.231e-03          -0.721          -0.501          -0.479       4.311e-01          0.0325
 416       4.454e+00      -6.398e+00       1.656e-01          -0.725          -0.492           0.482       4.288e-01         -2.4882
 417       4.683e+00      -6.398e+00       3.151e-01          -0.333          -0.222           0.916       6.634e-01         -2.8305
 418       5.128e+00      -6.398e+00       4.194e-01          -0.152          -0.101           0.983       9.904e-01         -1.5515
 419       5.763e+00      -6.398e+00       4.913e-01          -0.082          -0.056           0.995       1.289e+00         -1.0186
 420       6.550e+00      -6.398e+00       5.370e-01          -0.037          -0.029           0.999       1.519e+00         -0.7714
 421       7.445e+00      -6.398e+00       5.552e-01          -0.005          -0.010           1.000       1.664e+00         -0.6245
 422       8.396e+00      -6.398e+00       5.437e-01           0.028           0.008           1.000       1.715e+00         -0.5240
 423       9.346e+00      -6.398e+00       4.967e-01           0.071           0.029           0.997       1.669e+00         -0.4162
 424       1.024e+01      -6.398e+00       4.168e-01           0.108           0.047           0.993       1.528e+00         -0.2876
 425       1.103e+01      -6.398e+00       3.217e-01           0.133           0.057           0.989       1.297e+00         -0.1711
 426       1.166e+01      -6.398e+00       2.306e-01           0.153           0.065           0.986       9.874e-01         -0.0784
 427       1.211e+01      -6.398e+00       1.578e-01           0.174           0.073           0.982       6.189e-01         -0.0282
 428       1.234e+01      -6.398e+00       1.050e-01           0.357           0.139           0.924       2.236e-01          0.1413
Strip 17
 429       1.169e+01      -4.602e+00       5.936e-02           0.026          -0.003          -1.000       2.266e-01          0.1052
 430       1.144e+01      -4.602e+00       7.456e-02          -0.091          -0.045          -0.995       6.699e-01          0.2684
 431       1.096e+01      -4.602e+00       8.163e-02           0.033           0.002          -0.999       1.068e+00          0.3392
 432       1.028e+01      -4.602e+00       1.590e-02           0.143           0.046          -0.989       1.423e+00          0.2913
 433       9.437e+00      -4.602e+00      -1.260e-01           0.184           0.063          -0.981       1.697e+00          0.1836
 434       8.476e+00      -4.602e+00      -2.916e-01           0.156           0.051          -0.986       1.850e+00          0.0667
 435       7.456e+00      -4.602e+00      -4.092e-01           0.073           0.008          -0.997       1.885e+00          0.0262
 436       6.436e+00      -4.602e+00      -4.520e-01           0.010          -0.026          -1.000       1.826e+00          0.0760
 437       5.475e+00      -4.602e+00      -4.402e-01          -0.036          -0.053          -0.998       1.668e+00          0.1608
 438       4.629e+00      -4.602e+00      -3.911e-01          -0.083          -0.082          -0.993       1.417e+00          0.2703
 439       3.948e+00      -4.602e+00      -3.112e-01          -0.158          -0.129          -0.979       1.091e+00          0.4288
 440       3.470e+00      -4.602e+00      -1.977e-01          -0.329          -0.242          -0.913       7.302e-01          0.6571
 441       3.224e+00      -4.602e+00      -3.763e-02          -0.721          -0.501          -0.479       4.728e-01          0.1658
 442       3.224e+00      -4.602e+00       1.501e-01          -0.725          -0.492           0.482       4.702e-01         -2.1785
 443       3.470e+00      -4.602e+00       3.106e-01          -0.333          -0.222           0.916       7.274e-01         -2.5847
 444       3.948e+00      -4.601e+00       4.226e-01          -0.152          -0.101           0.983       1.086e+00         -1.4375
 445       4.629e+00      -4.601e+00       4.998e-01          -0.082          -0.056           0.995       1.414e+00         -0.9546
 446       5.475e+00      -4.601e+00       5.489e-01          -0.037          -0.029           0.999       1.666e+00         -0.7318
 447       6.436e+00      -4.601e+00       5.684e-01          -0.005          -0.010           1.000       1.825e+00         -0.5999
 448       7.456e+00      -4.601e+00       5.561e-01           0.028           0.008           1.000       1.880e+00         -0.5092
 449       8.476e+00      -4.601e+00       5.056e-01           0.071           0.029           0.997       1.830e+00         -0.4081
 450       9.437e+00      -4.601e+00       4.198e-01           0.108           0.047           0.993       1.676e+00         -0.2839
 451       1.028e+01      -4.602e+00       3.177e-01           0.133           0.057           0.989       1.422e+00         -0.1696
 452       1.096e+01      -4.602e+00       2.198e-01           0.153           0.065           0.986       1.083e+00         -0.0781
 453       1.144e+01      -4.602e+00       1.417e-01           0.174           0.073           0.982       6.786e-01         -0.0290
 454       1.169e+01      -4.602e+00       8.504e-02           0.357           0.139           0.924       2.452e-01          0.1388
Strip 18
 455       1.103e+01      -2.774e+00       3.724e-02           0.026          -0.003          -1.000       2.458e-01          0.1027
 456       1.076e+01      -2.774e+00       5.351e-02          -0.091          -0.045          -0.995       7.267e-01          0.2673
 457       1.025e+01      -2.774e+00       6.107e-02           0.033           0.002          -0.999       1.159e+00          0.3385
 458       9.525e+00      -2.774e+00      -9.252e-03           0.143           0.046          -0.989       1.544e+00          0.2890
 459       8.620e+00      -2.774e+00      -1.611e-01           0.184           0.063          -0.981       1.841e+00          0.1778
 460       7.592e+00      -2.774e+00      -3.382e-01           0.156           0.051          -0.986       2.007e+00          0.0569
 461       6.500e+00      -2.774e+00      -4.641e-01           0.073           0.008          -0.997       2.045e+00          0.0143
 462       5.409e+00      -2.774e+00      -5.098e-01           0.010          -0.026          -1.000       1.981e+00          0.0638
 463       4.381e+00      -2.774e+00      -4.972e-01          -0.036          -0.053          -0.998       1.809e+00          0.1469
 464       3.476e+00      -2.774e+00      -4.447e-01          -0.083          -0.082          -0.993       1.537e+00          0.2513
 465       2.747e+00      -2.774e+00      -3.593e-01          -0.158          -0.129          -0.979       1.183e+00          0.4017
 466       2.236e+00      -2.774e+00      -2.378e-01          -0.329          -0.242          -0.913       7.922e-01          0.6436
 467       1.972e+00      -2.774e+00      -6.652e-02          -0.721          -0.501          -0.479       5.129e-01          0.3227
 468       1.972e+00      -2.774e+00       1.343e-01          -0.725          -0.492           0.482       5.100e-01         -1.7962
 469       2.236e+00      -2.774e+00       3.060e-01          -0.333          -0.222           0.916       7.890e-01         -2.2676
 470       2.747e+00      -2.774e+00       4.259e-01          -0.152          -0.101           0.983       1.178e+00         -1.2880
 471       3.476e+00      -2.773e+00       5.085e-01          -0.082          -0.056           0.995       1.534e+00         -0.8728
 472       4.381e+00      -2.773e+00       5.610e-01          -0.037          -0.029           0.999       1.807e+00         -0.6847
 473       5.409e+00      -2.773e+00       5.819e-01          -0.005          -0.010           1.000       1.980e+00         -0.5748
 474       6.500e+00      -2.773e+00       5.687e-01           0.028           0.008           1.000       2.040e+00         -0.4988
 475       7.592e+00      -2.773e+00       5.147e-01           0.071           0.029           0.997       1.985e+00         -0.4073
 476       8.620e+00      -2.774e+00       4.229e-01           0.108           0.047           0.993       1.818e+00         -0.2880
 477       9.525e+00      -2.774e+00       3.136e-01           0.133           0.057           0.989       1.542e+00         -0.1748
 478       1.025e+01      -2.774e+00       2.089e-01           0.153           0.065           0.986       1.174e+00         -0.0827
 479       1.076e+01      -2.774e+00       1.253e-01           0.174           0.073           0.982       7.362e-01         -0.0332
 480       1.103e+01      -2.774e+00       6.472e-02           0.357           0.139           0.924       2.660e-01          0.1343
Strip 19
 481       1.036e+01      -9.267e-01       1.489e-02           0.026          -0.003          -1.000       2.639e-01          0.1001
 482       1.008e+01      -9.267e-01       3.224e-02          -0.091          -0.045          -0.995       7.800e-01          0.2664
 483       9.536e+00      -9.267e-01       4.030e-02           0.033           0.002          -0.999       1.244e+00          0.3369
 484       8.759e+00      -9.267e-01      -3.467e-02           0.143           0.046          -0.989       1.657e+00          0.2808
 485       7.794e+00      -9.267e-01      -1.965e-01           0.184           0.063          -0.981       1.975e+00          0.1612
 486       6.698e+00      -9.267e-01      -3.853e-01           0.156           0.051          -0.986       2.154e+00          0.0394
 487       5.535e+00      -9.268e-01      -5.195e-01           0.073           0.008          -0.997       2.194e+00          0.0065
 488       4.371e+00      -9.268e-01      -5.683e-01           0.010          -0.026          -1.000       2.126e+00          0.0672
 489       3.275e+00      -9.268e-01      -5.548e-01          -0.036          -0.053          -0.998       1.942e+00          0.1546
 490       2.310e+00      -9.267e-01      -4.988e-01          -0.083          -0.082          -0.993       1.649e+00          0.2558
 491       1.533e+00      -9.267e-01      -4.078e-01          -0.158          -0.129          -0.979       1.270e+00          0.3942
 492       9.884e-01      -9.267e-01      -2.783e-01          -0.329          -0.242          -0.913       8.503e-01          0.6259
 493       7.078e-01      -9.267e-01      -9.572e-02          -0.721          -0.501          -0.479       5.505e-01          0.5017
 494       7.078e-01      -9.267e-01       1.184e-01          -0.725          -0.492           0.482       5.473e-01         -1.2185
 495       9.884e-01      -9.266e-01       3.014e-01          -0.333          -0.222           0.916       8.468e-01         -1.7266
 496       1.533e+00      -9.266e-01       4.292e-01          -0.152          -0.101           0.983       1.264e+00         -1.0233
 497       2.310e+00      -9.266e-01       5.173e-01          -0.082          -0.056           0.995       1.646e+00         -0.7440
 498       3.275e+00      -9.266e-01       5.732e-01          -0.037          -0.029           0.999       1.940e+00         -0.6255
 499       4.371e+00      -9.266e-01       5.955e-01          -0.005          -0.010           1.000       2.125e+00         -0.5506
 500       5.535e+00      -9.266e-01       5.814e-01           0.028           0.008           1.000       2.189e+00         -0.4993
 501       6.698e+00      -9.266e-01       5.238e-01           0.071           0.029           0.997       2.131e+00         -0.4263
 502       7.794e+00      -9.266e-01       4.260e-01           0.108           0.047           0.993       1.951e+00         -0.3158
 503       8.759e+00      -9.266e-01       3.095e-01           0.133           0.057           0.989       1.655e+00         -0.2010
 504       9.536e+00      -9.267e-01       1.979e-01           0.153           0.065           0.986       1.261e+00         -0.1025
 505       1.008e+01      -9.267e-01       1.088e-01           0.174           0.073           0.982       7.902e-01         -0.0460
 506       1.036e+01      -9.267e-01       4.419e-02           0.357           0.139           0.924       2.855e-01          0.1240
Strip 20
 507       1.036e+01       9.267e-01       1.489e-02           0.026           0.003          -1.000       2.639e-01          0.1001
 508       1.008e+01       9.267e-01       3.224e-02          -0.091           0.045          -0.995       7.800e-01          0.2664
 509       9.536e+00       9.267e-01       4.030e-02           0.033          -0.002          -0.999       1.244e+00          0.3369
 510       8.759e+00       9.267e-01      -3.467e-02           0.143          -0.046          -0.989       1.657e+00          0.2808
 511       7.794e+00       9.267e-01      -1.965e-01           0.184          -0.063          -0.981       1.975e+00          0.1612
 512       6.698e+00       9.267e-01      -3.853e-01           0.156          -0.051          -0.986       2.154e+00          0.0394
 513       5.535e+00       9.268e-01      -5.195e-01           0.073          -0.008          -0.997       2.194e+00          0.0065
 514       4.371e+00       9.268e-01      -5.683e-01           0.010           0.026          -1.000       2.126e+00          0.0672
 515       3.275e+00       9.268e-01      -5.548e-01          -0.036           0.053          -0.998       1.942e+00          0.1546
 516       2.310e+00       9.267e-01      -4.988e-01          -0.083           0.082          -0.993       1.649e+00          0.2558
 517       1.533e+00       9.267e-01      -4.078e-01          -0.158           0.129          -0.979       1.270e+00          0.3942
 518       9.884e-01       9.267e-01      -2.783e-01          -0.329           0.242          -0.913       8.503e-01          0.6259
 519       7.078e-01       9.267e-01      -9.572e-02          -0.721           0.501          -0.479       5.505e-01          0.5017
 520       7.078e-01       9.267e-01       1.184e-01          -0.725           0.492           0.482       5.473e-01         -1.2185
 521       9.884e-01       9.266e-01       3.014e-01          -0.333           0.222           0.916       8.468e-01         -1.7266
 522       1.533e+00       9.266e-01       4.292e-01          -0.152           0.101           0.983       1.264e+00         -1.0233
 523       2.310e+00       9.266e-01       5.173e-01          -0.082           0.056           0.995       1.646e+00         -0.7440
 524       3.275e+00       9.266e-01       5.732e-01          -0.037           0.029           0.999       1.940e+00         -0.6255
 525       4.371e+00       9.266e-01       5.955e-01          -0.005           0.010           1.000       2.125e+00         -0.5506
 526       5.535e+00       9.266e-01       5.814e-01           0.028          -0.008           1.000       2.189e+00         -0.4993
 527       6.698e+00       9.266e-01       5.238e-01           0.071          -0.029           0.997       2.131e+00         -0.4263
 528       7.794e+00       9.266e-01       4.260e-01           0.108          -0.047           0.993       1.951e+00         -0.3158
 529       8.759e+00       9.266e-01       3.095e-01           0.133          -0.057           0.989       1.655e+00         -0.2010
 530       9.536e+00       9.267e-01       1.979e-01           0.153          -0.065           0.986       1.261e+00         -0.1025
 531       1.008e+01       9.267e-01       1.088e-01           0.174          -0.073           0.982       7.902e-01         -0.0460
 532       1.036e+01       9.267e-01       4.419e-02           0.357          -0.139           0.924       2.855e-01          0.1240
Strip 21
 533       1.103e+01       2.774e+00       3.724e-02           0.026           0.003          -1.000       2.458e-01          0.1027
 534       1.076e+01       2.774e+00       5.351e-02          -0.091           0.045          -0.995       7.267e-01          0.2673
 535       1.025e+01       2.774e+00       6.107e-02           0.033          -0.002          -0.999       1.159e+00          0.3385
 536       9.525e+00       2.774e+00      -9.252e-03           0.143          -0.046          -0.989       1.544e+00          0.2890
 537       8.620e+00       2.774e+00      -1.611e-01           0.184          -0.063          -0.981       1.841e+00          0.1778
 538       7.592e+00       2.774e+00      -3.382e-01           0.156          -0.051          -0.986       2.007e+00          0.0569
 539       6.500e+00       2.774e+00      -4.641e-01           0.073          -0.008          -0.997       2.045e+00          0.0143
 540       5.409e+00       2.774e+00      -5.098e-01           0.010           0.026          -1.000       1.981e+00          0.0638
 541       4.381e+00       2.774e+00      -4.972e-01          -0.036           0.053          -0.998       1.809e+00          0.1469
 542       3.476e+00       2.774e+00      -4.447e-01          -0.083           0.082          -0.993       1.537e+00          0.2513
 543       2.747e+00       2.774e+00      -3.593e-01          -0.158           0.129          -0.979       1.183e+00          0.4017
 544       2.236e+00       2.774e+00      -2.378e-01          -0.329           0.242          -0.913       7.922e-01          0.6436
 545       1.972e+00       2.774e+00      -6.652e-02          -0.721           0.501          -0.479       5.129e-01          0.3227
 546       1.972e+00       2.774e+00       1.343e-01          -0.725           0.492           0.482       5.100e-01         -1.7962
 547       2.236e+00       2.774e+00       3.060e-01          -0.333           0.222           0.916       7.890e-01         -2.2676
 548       2.747e+00       2.774e+00       4.259e-01          -0.152           0.101           0.983       1.178e+00         -1.2880
 549       3.476e+00       2.773e+00       5.085e-01          -0.082           0.056           0.995       1.534e+00         -0.8728
 550       4.381e+00       2.773e+00       5.610e-01          -0.037           0.029           0.999       1.807e+00         -0.6847
 551       5.409e+00       2.773e+00       5.819e-01          -0.005           0.010           1.000       1.980e+00         -0.5748
 552       6.500e+00       2.773e+00       5.687e-01           0.028          -0.008           1.000       2.040e+00         -0.4988
 553       7.592e+00       2.773e+00       5.147e-01           0.071          -0.029           0.997       1.985e+00         -0.4073
 554       8.620e+00       2.774e+00       4.229e-01           0.108          -0.047           0.993       1.818e+00         -0.2880
 555       9.525e+00       2.774e+00       3.136e-01           0.133          -0.057           0.989       1.542e+00         -0.1748
 556       1.025e+01       2.774e+00       2.089e-01           0.153          -0.065           0.986       1.174e+00         -0.0827
 557       1.076e+01       2.774e+00       1.253e-01           0.174          -0.073           0.982       7.362e-01         -0.0332
 558       1.103e+01       2.774e+00       6.472e-02           0.357          -0.139           0.924       2.660e-01          0.1343
Strip 22
 559       1.169e+01       4.602e+00       5.936e-02           0.026           0.003          -1.000       2.266e-01          0.1052
 560       1.144e+01       4.602e+00       7.456e-02          -0.091           0.045          -0.995       6.699e-01          0.2684
 561       1.096e+01       4.602e+00       8.163e-02           0.033          -0.002          -0.999       1.068e+00          0.3392
 562       1.028e+01       4.602e+00       1.590e-02           0.143          -0.046          -0.989       1.423e+00          0.2913
 563       9.437e+00       4.602e+00      -1.260e-01           0.184          -0.063          -0.981       1.697e+00          0.1836
 564       8.476e+00       4.602e+00      -2.916e-01           0.156          -0.051          -0.986       1.850e+00          0.0667
 565       7.456e+00       4.602e+00      -4.092e-01           0.073          -0.008          -0.997       1.885e+00          0.0262
 566       6.436e+00       4.602e+00      -4.520e-01           0.010           0.026          -1.000       1.826e+00          0.0760
 567       5.475e+00       4.602e+00      -4.402e-01          -0.036           0.053          -0.998       1.668e+00          0.1608
[...]
 852       1.517e+01       2.015e+01       3.997e-02           0.010           0.026          -1.000       3.324e-01          0.1349
 853       1.478e+01       2.015e+01       4.477e-02          -0.036           0.053          -0.998       3.036e-01          0.2449
 854       1.444e+01       2.015e+01       6.469e-02          -0.083           0.082          -0.993       2.578e-01          0.3833
 855       1.416e+01       2.015e+01       9.707e-02          -0.158           0.129          -0.979       1.984e-01          0.5576
 856       1.397e+01       2.015e+01       1.431e-01          -0.330           0.243          -0.912       1.327e-01          0.6104
 857       1.387e+01       2.015e+01       2.081e-01          -0.722           0.502          -0.476       8.591e-02         -0.8272
 858       1.387e+01       2.015e+01       2.842e-01          -0.723           0.491           0.485       8.576e-02         -4.1563
 859       1.397e+01       2.014e+01       3.493e-01          -0.332           0.222           0.917       1.326e-01         -4.0467
 860       1.416e+01       2.014e+01       3.948e-01          -0.151           0.101           0.983       1.978e-01         -2.0865
 861       1.444e+01       2.014e+01       4.261e-01          -0.082           0.056           0.995       2.575e-01         -1.3093
 862       1.478e+01       2.014e+01       4.460e-01          -0.037           0.029           0.999       3.034e-01         -0.9485
 863       1.517e+01       2.014e+01       4.539e-01          -0.005           0.010           1.000       3.322e-01         -0.7350
 864       1.558e+01       2.014e+01       4.489e-01           0.028          -0.008           1.000       3.423e-01         -0.5921
 865       1.600e+01       2.014e+01       4.284e-01           0.071          -0.029           0.997       3.331e-01         -0.4560
 866       1.639e+01       2.014e+01       3.936e-01           0.108          -0.047           0.993       3.050e-01         -0.3104
 867       1.673e+01       2.014e+01       3.522e-01           0.133          -0.058           0.989       2.587e-01         -0.1861
 868       1.701e+01       2.015e+01       3.125e-01           0.153          -0.065           0.986       1.970e-01         -0.0894
 869       1.720e+01       2.015e+01       2.808e-01           0.174          -0.073           0.982       1.235e-01         -0.0375
 870       1.730e+01       2.015e+01       2.578e-01           0.357          -0.139           0.924       4.460e-02          0.1418
Strip 34
 871       1.757e+01       2.089e+01       2.564e-01           0.026           0.003          -1.000       3.176e-02          0.0777
 872       1.748e+01       2.089e+01       2.622e-01          -0.091           0.045          -0.995       9.384e-02          0.2233
 873       1.730e+01       2.089e+01       2.648e-01           0.033          -0.002          -0.999       1.497e-01          0.2819
 874       1.704e+01       2.089e+01       2.400e-01           0.143          -0.046          -0.989       1.995e-01          0.2341
 875       1.672e+01       2.089e+01       1.865e-01           0.184          -0.063          -0.981       2.379e-01          0.1388
 876       1.636e+01       2.089e+01       1.240e-01           0.156          -0.050          -0.986       2.594e-01          0.0445
 877       1.597e+01       2.089e+01       7.967e-02           0.073          -0.008          -0.997       2.642e-01          0.0281
 878       1.559e+01       2.089e+01       6.354e-02           0.010           0.026          -1.000       2.558e-01          0.1006
 879       1.523e+01       2.089e+01       6.799e-02          -0.036           0.053          -0.998       2.336e-01          0.2133
 880       1.491e+01       2.089e+01       8.652e-02          -0.083           0.082          -0.993       1.984e-01          0.3567
 881       1.465e+01       2.089e+01       1.166e-01          -0.158           0.129          -0.979       1.527e-01          0.5380
 882       1.447e+01       2.089e+01       1.595e-01          -0.330           0.243          -0.912       1.021e-01          0.6090
 883       1.438e+01       2.089e+01       2.198e-01          -0.722           0.502          -0.475       6.610e-02         -0.7758
 884       1.438e+01       2.089e+01       2.906e-01          -0.723           0.491           0.486       6.601e-02         -4.0485
 885       1.447e+01       2.089e+01       3.512e-01          -0.332           0.222           0.917       1.021e-01         -3.9593
 886       1.465e+01       2.089e+01       3.934e-01          -0.151           0.101           0.983       1.523e-01         -2.0342
 887       1.491e+01       2.089e+01       4.226e-01          -0.082           0.056           0.995       1.982e-01         -1.2665
 888       1.523e+01       2.089e+01       4.411e-01          -0.037           0.029           0.999       2.335e-01         -0.9079
 889       1.559e+01       2.089e+01       4.484e-01          -0.005           0.010           1.000       2.557e-01         -0.6958
 890       1.597e+01       2.089e+01       4.438e-01           0.028          -0.008           1.000       2.634e-01         -0.5566
 891       1.636e+01       2.089e+01       4.247e-01           0.071          -0.029           0.997       2.563e-01         -0.4272
 892       1.672e+01       2.089e+01       3.924e-01           0.108          -0.047           0.993       2.347e-01         -0.2906
 893       1.704e+01       2.089e+01       3.539e-01           0.133          -0.058           0.989       1.991e-01         -0.1759
 894       1.730e+01       2.089e+01       3.170e-01           0.153          -0.065           0.986       1.516e-01         -0.0876
 895       1.748e+01       2.089e+01       2.875e-01           0.174          -0.073           0.982       9.503e-02         -0.0427
 896       1.757e+01       2.089e+01       2.661e-01           0.357          -0.139           0.924       3.432e-02          0.1365
Strip 35
 897       1.779e+01       2.149e+01       2.637e-01           0.026           0.003          -1.000       2.341e-02          0.0418
 898       1.770e+01       2.149e+01       2.691e-01          -0.091           0.045          -0.995       6.916e-02          0.1778
 899       1.753e+01       2.149e+01       2.716e-01           0.033          -0.002          -0.999       1.103e-01          0.2297
 900       1.729e+01       2.149e+01       2.483e-01           0.143          -0.046          -0.989       1.470e-01          0.1816
 901       1.699e+01       2.149e+01       1.980e-01           0.184          -0.063          -0.981       1.754e-01          0.0884
 902       1.665e+01       2.149e+01       1.394e-01           0.156          -0.050          -0.986       1.912e-01         -0.0056
 903       1.629e+01       2.149e+01       9.773e-02           0.073          -0.008          -0.997       1.947e-01         -0.0261
 904       1.593e+01       2.149e+01       8.258e-02           0.010           0.026          -1.000       1.886e-01          0.0412
 905       1.559e+01       2.149e+01       8.677e-02          -0.036           0.053          -0.998       1.722e-01          0.1527
 906       1.529e+01       2.149e+01       1.042e-01          -0.083           0.082          -0.993       1.462e-01          0.3016
 907       1.504e+01       2.149e+01       1.324e-01          -0.158           0.129          -0.979       1.125e-01          0.4954
 908       1.488e+01       2.149e+01       1.726e-01          -0.330           0.243          -0.912       7.526e-02          0.6042
 909       1.479e+01       2.149e+01       2.293e-01          -0.723           0.502          -0.475       4.871e-02         -0.6634
 910       1.479e+01       2.149e+01       2.958e-01          -0.723           0.491           0.486       4.867e-02         -3.8151
 911       1.488e+01       2.149e+01       3.527e-01          -0.332           0.222           0.917       7.527e-02         -3.7736
 912       1.504e+01       2.149e+01       3.923e-01          -0.151           0.101           0.983       1.123e-01         -1.9277
 913       1.529e+01       2.149e+01       4.197e-01          -0.082           0.056           0.995       1.461e-01         -1.1834
 914       1.559e+01       2.149e+01       4.371e-01          -0.037           0.029           0.999       1.721e-01         -0.8339
 915       1.593e+01       2.149e+01       4.440e-01          -0.005           0.010           1.000       1.885e-01         -0.6315
 916       1.629e+01       2.149e+01       4.396e-01           0.028          -0.008           1.000       1.941e-01         -0.5061
 917       1.665e+01       2.149e+01       4.217e-01           0.071          -0.029           0.997       1.889e-01         -0.3938
 918       1.699e+01       2.149e+01       3.914e-01           0.108          -0.047           0.993       1.730e-01         -0.2743
 919       1.729e+01       2.149e+01       3.552e-01           0.133          -0.058           0.989       1.468e-01         -0.1763
 920       1.753e+01       2.149e+01       3.205e-01           0.153          -0.065           0.986       1.117e-01         -0.1023
 921       1.770e+01       2.149e+01       2.929e-01           0.174          -0.073           0.982       7.004e-02         -0.0683
 922       1.779e+01       2.149e+01       2.728e-01           0.357          -0.139           0.924       2.529e-02          0.1121
Strip 36
 923       1.795e+01       2.195e+01       2.692e-01           0.026           0.003          -1.000       1.601e-02         -0.0664
 924       1.787e+01       2.195e+01       2.743e-01          -0.091           0.045          -0.995       4.730e-02          0.0523
 925       1.771e+01       2.195e+01       2.767e-01           0.033          -0.002          -0.999       7.546e-02          0.0985
 926       1.748e+01       2.195e+01       2.546e-01           0.143          -0.046          -0.989       1.006e-01          0.0633
 927       1.719e+01       2.195e+01       2.068e-01           0.184          -0.063          -0.981       1.199e-01         -0.0089
 928       1.687e+01       2.195e+01       1.510e-01           0.156          -0.050          -0.986       1.308e-01         -0.0853
 929       1.653e+01       2.195e+01       1.114e-01           0.073          -0.008          -0.997       1.332e-01         -0.1026
 930       1.618e+01       2.195e+01       9.698e-02           0.010           0.026          -1.000       1.290e-01         -0.0469
 931       1.586e+01       2.195e+01       1.010e-01          -0.036           0.053          -0.998       1.178e-01          0.0482
 932       1.557e+01       2.195e+01       1.175e-01          -0.083           0.082          -0.993       9.999e-02          0.1896
 933       1.534e+01       2.195e+01       1.444e-01          -0.158           0.129          -0.979       7.694e-02          0.3971
 934       1.518e+01       2.195e+01       1.826e-01          -0.330           0.243          -0.912       5.146e-02          0.5693
 935       1.510e+01       2.195e+01       2.365e-01          -0.723           0.502          -0.475       3.331e-02         -0.4961
 936       1.510e+01       2.195e+01       2.998e-01          -0.723           0.491           0.486       3.329e-02         -3.4314
 937       1.518e+01       2.195e+01       3.538e-01          -0.332           0.222           0.917       5.148e-02         -3.4615
 938       1.534e+01       2.195e+01       3.915e-01          -0.151           0.101           0.983       7.677e-02         -1.7462
 939       1.557e+01       2.195e+01       4.175e-01          -0.082           0.056           0.995       9.990e-02         -1.0474
 940       1.586e+01       2.195e+01       4.341e-01          -0.037           0.029           0.999       1.177e-01         -0.7273
 941       1.618e+01       2.194e+01       4.406e-01          -0.005           0.010           1.000       1.289e-01         -0.5588
 942       1.653e+01       2.194e+01       4.365e-01           0.028          -0.008           1.000       1.328e-01         -0.4687
 943       1.687e+01       2.195e+01       4.195e-01           0.071          -0.029           0.997       1.292e-01         -0.3902
 944       1.719e+01       2.195e+01       3.906e-01           0.108          -0.047           0.993       1.183e-01         -0.3026
 945       1.748e+01       2.195e+01       3.562e-01           0.133          -0.058           0.989       1.004e-01         -0.2349
 946       1.771e+01       2.195e+01       3.233e-01           0.153          -0.065           0.986       7.642e-02         -0.1888
 947       1.787e+01       2.195e+01       2.969e-01           0.174          -0.073           0.982       4.790e-02         -0.1747
 948       1.795e+01       2.195e+01       2.779e-01           0.357          -0.139           0.924       1.730e-02          0.0111
Strip 37
 949       1.806e+01       2.225e+01       2.729e-01           0.026           0.003          -1.000       9.314e-03         -0.5783
 950       1.798e+01       2.225e+01       2.778e-01          -0.091           0.045          -0.995       2.752e-02         -0.4992
 951       1.783e+01       2.225e+01       2.801e-01           0.033          -0.002          -0.999       4.391e-02         -0.3979
 952       1.760e+01       2.225e+01       2.588e-01           0.143          -0.046          -0.989       5.852e-02         -0.2882
 953       1.733e+01       2.225e+01       2.126e-01           0.184          -0.063          -0.981       6.979e-02         -0.2195
 954       1.702e+01       2.225e+01       1.588e-01           0.156          -0.050          -0.986       7.610e-02         -0.2108
 955       1.668e+01       2.225e+01       1.205e-01           0.073          -0.008          -0.997       7.749e-02         -0.1984
 956       1.635e+01       2.225e+01       1.066e-01           0.010           0.026          -1.000       7.504e-02         -0.1508
 957       1.604e+01       2.225e+01       1.105e-01          -0.036           0.053          -0.998       6.852e-02         -0.0865
 958       1.577e+01       2.225e+01       1.264e-01          -0.083           0.082          -0.993       5.818e-02          0.0096
 959       1.554e+01       2.225e+01       1.524e-01          -0.158           0.129          -0.979       4.477e-02          0.1829
 960       1.539e+01       2.225e+01       1.893e-01          -0.330           0.243          -0.912       2.994e-02          0.4026
 961       1.531e+01       2.225e+01       2.414e-01          -0.723           0.502          -0.475       1.938e-02         -0.3664
 962       1.531e+01       2.225e+01       3.024e-01          -0.723           0.491           0.486       1.937e-02         -2.8753
 963       1.539e+01       2.225e+01       3.546e-01          -0.332           0.222           0.917       2.996e-02         -2.9735
 964       1.554e+01       2.225e+01       3.910e-01          -0.151           0.101           0.983       4.467e-02         -1.4595
 965       1.577e+01       2.225e+01       4.161e-01          -0.082           0.056           0.995       5.813e-02         -0.8683
 966       1.604e+01       2.225e+01       4.320e-01          -0.037           0.029           0.999       6.848e-02         -0.6334
 967       1.635e+01       2.225e+01       4.384e-01          -0.005           0.010           1.000       7.500e-02         -0.5288
 968       1.668e+01       2.225e+01       4.344e-01           0.028          -0.008           1.000       7.725e-02         -0.4864
 969       1.702e+01       2.225e+01       4.180e-01           0.071          -0.029           0.997       7.518e-02         -0.4668
 970       1.733e+01       2.225e+01       3.901e-01           0.108          -0.047           0.993       6.883e-02         -0.4792
 971       1.760e+01       2.225e+01       3.569e-01           0.133          -0.058           0.989       5.839e-02         -0.5549
 972       1.783e+01       2.225e+01       3.251e-01           0.153          -0.065           0.986       4.447e-02         -0.6594
 973       1.798e+01       2.225e+01       2.997e-01           0.174          -0.073           0.982       2.787e-02         -0.7367
 974       1.806e+01       2.225e+01       2.812e-01           0.357          -0.139           0.924       1.006e-02         -0.5440
Strip 38
 975       1.812e+01       2.240e+01       2.747e-01           0.026           0.003          -1.000       3.056e-03         -1.2298
 976       1.804e+01       2.240e+01       2.796e-01          -0.091           0.045          -0.995       9.029e-03         -1.2112
 977       1.789e+01       2.240e+01       2.819e-01           0.033          -0.002          -0.999       1.441e-02         -1.0467
 978       1.767e+01       2.241e+01       2.609e-01           0.143          -0.046          -0.989       1.920e-02         -0.7460
 979       1.740e+01       2.241e+01       2.156e-01           0.184          -0.063          -0.981       2.290e-02         -0.4788
 980       1.709e+01       2.241e+01       1.627e-01           0.156          -0.050          -0.986       2.497e-02         -0.3348
 981       1.676e+01       2.241e+01       1.251e-01           0.073          -0.008          -0.997       2.542e-02         -0.2657
 982       1.644e+01       2.241e+01       1.115e-01           0.010           0.026          -1.000       2.462e-02         -0.2158
 983       1.613e+01       2.241e+01       1.153e-01          -0.036           0.053          -0.998       2.248e-02         -0.1710
 984       1.586e+01       2.241e+01       1.309e-01          -0.083           0.082          -0.993       1.909e-02         -0.1093
 985       1.564e+01       2.241e+01       1.564e-01          -0.158           0.129          -0.979       1.469e-02          0.0160
 986       1.549e+01       2.241e+01       1.927e-01          -0.330           0.243          -0.912       9.823e-03          0.2329
 987       1.541e+01       2.241e+01       2.438e-01          -0.723           0.502          -0.474       6.357e-03         -0.1826
 988       1.541e+01       2.240e+01       3.037e-01          -0.723           0.491           0.487       6.356e-03         -2.1295
 989       1.549e+01       2.240e+01       3.550e-01          -0.332           0.222           0.917       9.830e-03         -2.3431
 990       1.564e+01       2.240e+01       3.907e-01          -0.151           0.101           0.983       1.466e-02         -1.1538
 991       1.586e+01       2.240e+01       4.154e-01          -0.082           0.056           0.995       1.907e-02         -0.7345
 992       1.613e+01       2.240e+01       4.310e-01          -0.037           0.029           0.999       2.247e-02         -0.5878
 993       1.644e+01       2.240e+01       4.373e-01          -0.005           0.010           1.000       2.460e-02         -0.5212
 994       1.676e+01       2.240e+01       4.333e-01           0.028          -0.008           1.000       2.535e-02         -0.4949
 995       1.709e+01       2.240e+01       4.172e-01           0.071          -0.029           0.997       2.467e-02         -0.4966
 996       1.740e+01       2.240e+01       3.898e-01           0.108          -0.047           0.993       2.258e-02         -0.5774
 997       1.767e+01       2.240e+01       3.572e-01           0.133          -0.058           0.989       1.916e-02         -0.8049
 998       1.789e+01       2.240e+01       3.260e-01           0.153          -0.065           0.986       1.459e-02         -1.1356
 999       1.804e+01       2.240e+01       3.010e-01           0.174          -0.073           0.982       9.143e-03         -1.3858
1000       1.812e+01       2.240e+01       2.829e-01           0.357          -0.139           0.924       3.302e-03         -1.2384










