xflr5 v6.61

Plane Name
T1-10.0 m/s-Panel-Inviscid
QInf  =   10.000000 m/s
Alpha =    0.000000
Beta  =    0.000°
Phi   =    0.000°
Ctrl  =    0.000
CL    =    0.149649
Cy    =    0.000000
Cd    =    0.001013     ICd   =    0.001013     PCd   =    0.000000
Cl   = -1.50728e-16
Cm   =   -0.240778
ICn   =   -0.000000     PCn   =   -0.000000 
XCP   =   11.455165     YCP   =    0.000000     ZCP   =    1.024444  
XNP   =    0.000000
Bending = 11699.306739

Main Wing
  y-span        Chord      Ai         Cl        PCd          ICd        CmGeom    CmAirf@chord/4    XTrtop    XTrBot      XCP       BM
  -22.4067     2.7426    -3.205    0.069794    0.000000    0.003908   -0.532248   -0.030301     0.0000    0.0000    0.6036    0.0000
  -22.2536     2.7928    -2.056    0.109850    0.000000    0.003944   -0.727614   -0.044351     0.0000    0.0000    0.6213    0.1413
  -21.9485     2.8930    -1.290    0.138238    0.000000    0.003112   -0.826094   -0.049987     0.0000    0.0000    0.6010    1.7736
  -21.4935     3.0424    -0.845    0.155966    0.000000    0.002301   -0.864049   -0.053780     0.0000    0.0000    0.5877    8.5652
  -20.8917     3.2400    -0.606    0.166633    0.000000    0.001762   -0.850068   -0.056217     0.0000    0.0000    0.5804   27.0558
  -20.1472     3.4845    -0.472    0.172420    0.000000    0.001421   -0.799660   -0.057740     0.0000    0.0000    0.5776   66.9799
  -19.2650     3.7742    -0.395    0.174767    0.000000    0.001204   -0.728124   -0.058638     0.0000    0.0000    0.5781   141.4434
  -18.2512     4.1071    -0.351    0.174734    0.000000    0.001071   -0.647634   -0.059141     0.0000    0.0000    0.5810   266.9522
  -17.1128     4.4809    -0.329    0.173072    0.000000    0.000994   -0.566356   -0.059409     0.0000    0.0000    0.5859   463.2864
  -15.8575     4.8931    -0.322    0.170301    0.000000    0.000958   -0.489120   -0.059546     0.0000    0.0000    0.5925   753.1926
  -14.4938     5.3408    -0.325    0.166715    0.000000    0.000945   -0.418327   -0.059604     0.0000    0.0000    0.6006   1161.8647
  -13.0311     5.8211    -0.334    0.162509    0.000000    0.000948   -0.354973   -0.059612     0.0000    0.0000    0.6102   1716.1614
  -11.4794     6.3306    -0.348    0.157777    0.000000    0.000958   -0.299171   -0.059586     0.0000    0.0000    0.6215   2443.5751
   -9.8493     6.8659    -0.365    0.152566    0.000000    0.000971   -0.250600   -0.059535     0.0000    0.0000    0.6346   3370.9433
   -8.1520     7.4232    -0.383    0.146859    0.000000    0.000982   -0.208693   -0.059458     0.0000    0.0000    0.6500   4522.9583
   -6.3989     7.9989    -0.401    0.140586    0.000000    0.000984   -0.172800   -0.059341     0.0000    0.0000    0.6681   5920.4966
   -4.6021     8.5889    -0.414    0.133591    0.000000    0.000966   -0.142253   -0.059135     0.0000    0.0000    0.6898   7578.8267
   -2.7739     9.1892    -0.407    0.125554    0.000000    0.000893   -0.116398   -0.058717     0.0000    0.0000    0.7157   9505.7099
   -0.9267     9.7957    -0.277    0.115814    0.000000    0.000561   -0.094670   -0.057923     0.0000    0.0000    0.7464   11699.3067
    0.9267     9.7957    -0.277    0.115814    0.000000    0.000561   -0.094670   -0.057923     0.0000    0.0000    0.7464   11699.3067
    2.7739     9.1892    -0.407    0.125554    0.000000    0.000893   -0.116398   -0.058717     0.0000    0.0000    0.7157   9505.7099
    4.6021     8.5889    -0.414    0.133591    0.000000    0.000966   -0.142253   -0.059135     0.0000    0.0000    0.6898   7578.8267
    6.3989     7.9989    -0.401    0.140586    0.000000    0.000984   -0.172800   -0.059341     0.0000    0.0000    0.6681   5920.4966
    8.1520     7.4232    -0.383    0.146859    0.000000    0.000982   -0.208693   -0.059458     0.0000    0.0000    0.6500   4522.9583
    9.8493     6.8659    -0.365    0.152566    0.000000    0.000971   -0.250600   -0.059535     0.0000    0.0000    0.6346   3370.9433
   11.4794     6.3306    -0.348    0.157777    0.000000    0.000958   -0.299171   -0.059586     0.0000    0.0000    0.6215   2443.5751
   13.0311     5.8211    -0.334    0.162509    0.000000    0.000948   -0.354973   -0.059612     0.0000    0.0000    0.6102   1716.1614
   14.4938     5.3408    -0.325    0.166715    0.000000    0.000945   -0.418327   -0.059604     0.0000    0.0000    0.6006   1161.8647
   15.8575     4.8931    -0.322    0.170301    0.000000    0.000958   -0.489120   -0.059546     0.0000    0.0000    0.5925   753.1926
   17.1128     4.4809    -0.329    0.173072    0.000000    0.000994   -0.566356   -0.059409     0.0000    0.0000    0.5859   463.2864
   18.2512     4.1071    -0.351    0.174734    0.000000    0.001071   -0.647634   -0.059141     0.0000    0.0000    0.5810   266.9522
   19.2650     3.7742    -0.395    0.174767    0.000000    0.001204   -0.728124   -0.058638     0.0000    0.0000    0.5781   141.4434
   20.1472     3.4845    -0.472    0.172420    0.000000    0.001421   -0.799660   -0.057740     0.0000    0.0000    0.5776   66.9799
   20.8917     3.2400    -0.606    0.166633    0.000000    0.001762   -0.850068   -0.056217     0.0000    0.0000    0.5804   27.0558
   21.4935     3.0424    -0.845    0.155966    0.000000    0.002301   -0.864049   -0.053780     0.0000    0.0000    0.5877    8.5652
   21.9485     2.8930    -1.290    0.138238    0.000000    0.003112   -0.826094   -0.049987     0.0000    0.0000    0.6010    1.7736
   22.2536     2.7928    -2.056    0.109850    0.000000    0.003944   -0.727614   -0.044351     0.0000    0.0000    0.6213    0.1413
   22.4067     2.7426    -3.205    0.069794    0.000000    0.003908   -0.532248   -0.030301     0.0000    0.0000    0.6036    0.0000


Main Wing Cp Coefficients
 Panel     CtrlPt.x        CtrlPt.y        CtrlPt.z       Nx      Ny       Nz        Area       Cp
Main WingCp Coefficients
Strip 1
  13       1.812e+01      -2.240e+01       2.747e-01           0.026          -0.003          -1.000       3.056e-03          0.0107
  14       1.804e+01      -2.240e+01       2.796e-01          -0.091          -0.045          -0.995       9.029e-03          0.0880
  15       1.789e+01      -2.240e+01       2.819e-01           0.033           0.002          -0.999       1.441e-02          0.1498
  16       1.767e+01      -2.241e+01       2.609e-01           0.143           0.046          -0.989       1.920e-02          0.1292
  17       1.740e+01      -2.241e+01       2.156e-01           0.184           0.063          -0.981       2.290e-02          0.0528
  18       1.709e+01      -2.241e+01       1.627e-01           0.156           0.050          -0.986       2.497e-02         -0.0530
  19       1.676e+01      -2.241e+01       1.251e-01           0.073           0.008          -0.997       2.542e-02         -0.1265
  20       1.644e+01      -2.241e+01       1.115e-01           0.010          -0.026          -1.000       2.462e-02         -0.1426
  21       1.613e+01      -2.241e+01       1.153e-01          -0.036          -0.053          -0.998       2.248e-02         -0.1506
  22       1.586e+01      -2.241e+01       1.309e-01          -0.083          -0.082          -0.993       1.909e-02         -0.1736
  23       1.564e+01      -2.241e+01       1.564e-01          -0.158          -0.129          -0.979       1.469e-02         -0.2250
  24       1.549e+01      -2.241e+01       1.927e-01          -0.330          -0.243          -0.912       9.823e-03         -0.2520
  25       1.541e+01      -2.241e+01       2.438e-01          -0.723          -0.502          -0.474       6.357e-03          0.3175
  26       1.541e+01      -2.240e+01       3.037e-01          -0.723          -0.491           0.487       6.356e-03          0.1852
  27       1.549e+01      -2.240e+01       3.550e-01          -0.332          -0.222           0.917       9.830e-03         -0.4415
  28       1.564e+01      -2.240e+01       3.907e-01          -0.151          -0.101           0.983       1.466e-02         -0.3194
  29       1.586e+01      -2.240e+01       4.154e-01          -0.082          -0.056           0.995       1.907e-02         -0.2215
  30       1.613e+01      -2.240e+01       4.310e-01          -0.037          -0.029           0.999       2.247e-02         -0.1800
  31       1.644e+01      -2.240e+01       4.373e-01          -0.005          -0.010           1.000       2.460e-02         -0.1576
  32       1.676e+01      -2.240e+01       4.333e-01           0.028           0.008           1.000       2.535e-02         -0.1444
  33       1.709e+01      -2.240e+01       4.172e-01           0.071           0.029           0.997       2.467e-02         -0.1213
  34       1.740e+01      -2.240e+01       3.898e-01           0.108           0.047           0.993       2.258e-02         -0.0815
  35       1.767e+01      -2.240e+01       3.572e-01           0.133           0.058           0.989       1.916e-02         -0.0504
  36       1.789e+01      -2.240e+01       3.260e-01           0.153           0.065           0.986       1.459e-02         -0.0467
  37       1.804e+01      -2.240e+01       3.010e-01           0.174           0.073           0.982       9.143e-03         -0.0902
  38       1.812e+01      -2.240e+01       2.829e-01           0.357           0.139           0.924       3.302e-03         -0.0116
Strip 2
  39       1.806e+01      -2.225e+01       2.729e-01           0.026          -0.003          -1.000       9.314e-03          0.0653
  40       1.798e+01      -2.225e+01       2.778e-01          -0.091          -0.045          -0.995       2.752e-02          0.1649
  41       1.783e+01      -2.225e+01       2.801e-01           0.033           0.002          -0.999       4.391e-02          0.2388
  42       1.760e+01      -2.225e+01       2.588e-01           0.143           0.046          -0.989       5.852e-02          0.1970
  43       1.733e+01      -2.225e+01       2.126e-01           0.184           0.063          -0.981       6.979e-02          0.0829
  44       1.702e+01      -2.225e+01       1.588e-01           0.156           0.050          -0.986       7.610e-02         -0.0636
  45       1.668e+01      -2.225e+01       1.205e-01           0.073           0.008          -0.997       7.749e-02         -0.1625
  46       1.635e+01      -2.225e+01       1.066e-01           0.010          -0.026          -1.000       7.504e-02         -0.1827
  47       1.604e+01      -2.225e+01       1.105e-01          -0.036          -0.053          -0.998       6.852e-02         -0.1925
  48       1.577e+01      -2.225e+01       1.264e-01          -0.083          -0.082          -0.993       5.818e-02         -0.2216
  49       1.554e+01      -2.225e+01       1.524e-01          -0.158          -0.129          -0.979       4.477e-02         -0.2711
  50       1.539e+01      -2.225e+01       1.893e-01          -0.330          -0.243          -0.912       2.994e-02         -0.2565
  51       1.531e+01      -2.225e+01       2.414e-01          -0.723          -0.502          -0.475       1.938e-02          0.3944
  52       1.531e+01      -2.225e+01       3.024e-01          -0.723          -0.491           0.486       1.937e-02          0.2241
  53       1.539e+01      -2.225e+01       3.546e-01          -0.332          -0.222           0.917       2.996e-02         -0.4993
  54       1.554e+01      -2.225e+01       3.910e-01          -0.151          -0.101           0.983       4.467e-02         -0.3977
  55       1.577e+01      -2.225e+01       4.161e-01          -0.082          -0.056           0.995       5.813e-02         -0.2851
  56       1.604e+01      -2.225e+01       4.320e-01          -0.037          -0.029           0.999       6.848e-02         -0.2279
  57       1.635e+01      -2.225e+01       4.384e-01          -0.005          -0.010           1.000       7.500e-02         -0.1976
  58       1.668e+01      -2.225e+01       4.344e-01           0.028           0.008           1.000       7.725e-02         -0.1829
  59       1.702e+01      -2.225e+01       4.180e-01           0.071           0.029           0.997       7.518e-02         -0.1580
  60       1.733e+01      -2.225e+01       3.901e-01           0.108           0.047           0.993       6.883e-02         -0.1134
  61       1.760e+01      -2.225e+01       3.569e-01           0.133           0.058           0.989       5.839e-02         -0.0746
  62       1.783e+01      -2.225e+01       3.251e-01           0.153           0.065           0.986       4.447e-02         -0.0539
  63       1.798e+01      -2.225e+01       2.997e-01           0.174           0.073           0.982       2.787e-02         -0.0695
  64       1.806e+01      -2.225e+01       2.812e-01           0.357           0.139           0.924       1.006e-02          0.0216
Strip 3
  65       1.795e+01      -2.195e+01       2.692e-01           0.026          -0.003          -1.000       1.601e-02          0.1080
  66       1.787e+01      -2.195e+01       2.743e-01          -0.091          -0.045          -0.995       4.730e-02          0.2122
  67       1.771e+01      -2.195e+01       2.767e-01           0.033           0.002          -0.999       7.546e-02          0.2828
  68       1.748e+01      -2.195e+01       2.546e-01           0.143           0.046          -0.989       1.006e-01          0.2263
  69       1.719e+01      -2.195e+01       2.068e-01           0.184           0.063          -0.981       1.199e-01          0.0914
  70       1.687e+01      -2.195e+01       1.510e-01           0.156           0.050          -0.986       1.308e-01         -0.0782
  71       1.653e+01      -2.195e+01       1.114e-01           0.073           0.008          -0.997       1.332e-01         -0.1944
  72       1.618e+01      -2.195e+01       9.698e-02           0.010          -0.026          -1.000       1.290e-01         -0.2203
  73       1.586e+01      -2.195e+01       1.010e-01          -0.036          -0.053          -0.998       1.178e-01         -0.2278
  74       1.557e+01      -2.195e+01       1.175e-01          -0.083          -0.082          -0.993       9.999e-02         -0.2425
  75       1.534e+01      -2.195e+01       1.444e-01          -0.158          -0.129          -0.979       7.694e-02         -0.2604
  76       1.518e+01      -2.195e+01       1.826e-01          -0.330          -0.243          -0.912       5.146e-02         -0.2064
  77       1.510e+01      -2.195e+01       2.365e-01          -0.723          -0.502          -0.475       3.331e-02          0.4794
  78       1.510e+01      -2.195e+01       2.998e-01          -0.723          -0.491           0.486       3.329e-02          0.2787
  79       1.518e+01      -2.195e+01       3.538e-01          -0.332          -0.222           0.917       5.148e-02         -0.4969
  80       1.534e+01      -2.195e+01       3.915e-01          -0.151          -0.101           0.983       7.677e-02         -0.4233
  81       1.557e+01      -2.195e+01       4.175e-01          -0.082          -0.056           0.995       9.990e-02         -0.3315
  82       1.586e+01      -2.195e+01       4.341e-01          -0.037          -0.029           0.999       1.177e-01         -0.2791
  83       1.618e+01      -2.194e+01       4.406e-01          -0.005          -0.010           1.000       1.289e-01         -0.2447
  84       1.653e+01      -2.194e+01       4.365e-01           0.028           0.008           1.000       1.328e-01         -0.2255
  85       1.687e+01      -2.195e+01       4.195e-01           0.071           0.029           0.997       1.292e-01         -0.1942
  86       1.719e+01      -2.195e+01       3.906e-01           0.108           0.047           0.993       1.183e-01         -0.1377
  87       1.748e+01      -2.195e+01       3.562e-01           0.133           0.058           0.989       1.004e-01         -0.0818
  88       1.771e+01      -2.195e+01       3.233e-01           0.153           0.065           0.986       7.642e-02         -0.0415
  89       1.787e+01      -2.195e+01       2.969e-01           0.174           0.073           0.982       4.790e-02         -0.0346
  90       1.795e+01      -2.195e+01       2.779e-01           0.357           0.139           0.924       1.730e-02          0.0621
Strip 4
  91       1.779e+01      -2.149e+01       2.637e-01           0.026          -0.003          -1.000       2.341e-02          0.1207
  92       1.770e+01      -2.149e+01       2.691e-01          -0.091          -0.045          -0.995       6.916e-02          0.2254
  93       1.753e+01      -2.149e+01       2.716e-01           0.033           0.002          -0.999       1.103e-01          0.2946
  94       1.729e+01      -2.149e+01       2.483e-01           0.143           0.046          -0.989       1.470e-01          0.2325
  95       1.699e+01      -2.149e+01       1.980e-01           0.184           0.063          -0.981       1.754e-01          0.0885
  96       1.665e+01      -2.149e+01       1.394e-01           0.156           0.050          -0.986       1.912e-01         -0.0916
  97       1.629e+01      -2.149e+01       9.773e-02           0.073           0.008          -0.997       1.947e-01         -0.2148
  98       1.593e+01      -2.149e+01       8.258e-02           0.010          -0.026          -1.000       1.886e-01         -0.2398
  99       1.559e+01      -2.149e+01       8.677e-02          -0.036          -0.053          -0.998       1.722e-01         -0.2384
 100       1.529e+01      -2.149e+01       1.042e-01          -0.083          -0.082          -0.993       1.462e-01         -0.2396
 101       1.504e+01      -2.149e+01       1.324e-01          -0.158          -0.129          -0.979       1.125e-01         -0.2471
 102       1.488e+01      -2.149e+01       1.726e-01          -0.330          -0.243          -0.912       7.526e-02         -0.1838
 103       1.479e+01      -2.149e+01       2.293e-01          -0.723          -0.502          -0.475       4.871e-02          0.5033
 104       1.479e+01      -2.149e+01       2.958e-01          -0.723          -0.491           0.486       4.867e-02          0.2866
 105       1.488e+01      -2.149e+01       3.527e-01          -0.332          -0.222           0.917       7.527e-02         -0.5010
 106       1.504e+01      -2.149e+01       3.923e-01          -0.151          -0.101           0.983       1.123e-01         -0.4317
 107       1.529e+01      -2.149e+01       4.197e-01          -0.082          -0.056           0.995       1.461e-01         -0.3479
 108       1.559e+01      -2.149e+01       4.371e-01          -0.037          -0.029           0.999       1.721e-01         -0.3064
 109       1.593e+01      -2.149e+01       4.440e-01          -0.005          -0.010           1.000       1.885e-01         -0.2781
 110       1.629e+01      -2.149e+01       4.396e-01           0.028           0.008           1.000       1.941e-01         -0.2594
 111       1.665e+01      -2.149e+01       4.217e-01           0.071           0.029           0.997       1.889e-01         -0.2245
 112       1.699e+01      -2.149e+01       3.914e-01           0.108           0.047           0.993       1.730e-01         -0.1607
 113       1.729e+01      -2.149e+01       3.552e-01           0.133           0.058           0.989       1.468e-01         -0.0960
 114       1.753e+01      -2.149e+01       3.205e-01           0.153           0.065           0.986       1.117e-01         -0.0465
 115       1.770e+01      -2.149e+01       2.929e-01           0.174           0.073           0.982       7.004e-02         -0.0299
 116       1.779e+01      -2.149e+01       2.728e-01           0.357           0.139           0.924       2.529e-02          0.0699
Strip 5
 117       1.757e+01      -2.089e+01       2.564e-01           0.026          -0.003          -1.000       3.176e-02          0.1218
 118       1.748e+01      -2.089e+01       2.622e-01          -0.091          -0.045          -0.995       9.384e-02          0.2268
 119       1.730e+01      -2.089e+01       2.648e-01           0.033           0.002          -0.999       1.497e-01          0.2956
 120       1.704e+01      -2.089e+01       2.400e-01           0.143           0.046          -0.989       1.995e-01          0.2316
 121       1.672e+01      -2.089e+01       1.865e-01           0.184           0.063          -0.981       2.379e-01          0.0844
 122       1.636e+01      -2.089e+01       1.240e-01           0.156           0.050          -0.986       2.594e-01         -0.0989
 123       1.597e+01      -2.089e+01       7.967e-02           0.073           0.008          -0.997       2.642e-01         -0.2229
 124       1.559e+01      -2.089e+01       6.354e-02           0.010          -0.026          -1.000       2.558e-01         -0.2447
 125       1.523e+01      -2.089e+01       6.799e-02          -0.036          -0.053          -0.998       2.336e-01         -0.2383
 126       1.491e+01      -2.089e+01       8.652e-02          -0.083          -0.082          -0.993       1.984e-01         -0.2354
 127       1.465e+01      -2.089e+01       1.166e-01          -0.158          -0.129          -0.979       1.527e-01         -0.2404
 128       1.447e+01      -2.089e+01       1.595e-01          -0.330          -0.243          -0.912       1.021e-01         -0.1737
 129       1.438e+01      -2.089e+01       2.198e-01          -0.722          -0.502          -0.475       6.610e-02          0.5124
 130       1.438e+01      -2.089e+01       2.906e-01          -0.723          -0.491           0.486       6.601e-02          0.2872
 131       1.447e+01      -2.089e+01       3.512e-01          -0.332          -0.222           0.917       1.021e-01         -0.5057
 132       1.465e+01      -2.089e+01       3.934e-01          -0.151          -0.101           0.983       1.523e-01         -0.4369
 133       1.491e+01      -2.089e+01       4.226e-01          -0.082          -0.056           0.995       1.982e-01         -0.3550
 134       1.523e+01      -2.089e+01       4.411e-01          -0.037          -0.029           0.999       2.335e-01         -0.3179
 135       1.559e+01      -2.089e+01       4.484e-01          -0.005          -0.010           1.000       2.557e-01         -0.2946
 136       1.597e+01      -2.089e+01       4.438e-01           0.028           0.008           1.000       2.634e-01         -0.2790
 137       1.636e+01      -2.089e+01       4.247e-01           0.071           0.029           0.997       2.563e-01         -0.2440
 138       1.672e+01      -2.089e+01       3.924e-01           0.108           0.047           0.993       2.347e-01         -0.1773
 139       1.704e+01      -2.089e+01       3.539e-01           0.133           0.058           0.989       1.991e-01         -0.1081
 140       1.730e+01      -2.089e+01       3.170e-01           0.153           0.065           0.986       1.516e-01         -0.0540
 141       1.748e+01      -2.089e+01       2.875e-01           0.174           0.073           0.982       9.503e-02         -0.0333
 142       1.757e+01      -2.089e+01       2.661e-01           0.357           0.139           0.924       3.432e-02          0.0678
Strip 6
 143       1.730e+01      -2.015e+01       2.474e-01           0.026          -0.003          -1.000       4.126e-02          0.1202
 144       1.720e+01      -2.015e+01       2.536e-01          -0.091          -0.045          -0.995       1.219e-01          0.2257
 145       1.701e+01      -2.015e+01       2.564e-01           0.033           0.002          -0.999       1.945e-01          0.2948
 146       1.673e+01      -2.015e+01       2.298e-01           0.143           0.046          -0.989       2.592e-01          0.2303
 147       1.639e+01      -2.015e+01       1.722e-01           0.184           0.063          -0.981       3.091e-01          0.0823
 148       1.600e+01      -2.015e+01       1.051e-01           0.156           0.050          -0.986       3.371e-01         -0.1015
 149       1.558e+01      -2.015e+01       5.732e-02           0.073           0.008          -0.997       3.432e-01         -0.2249
 150       1.517e+01      -2.015e+01       3.997e-02           0.010          -0.026          -1.000       3.324e-01         -0.2451
 151       1.478e+01      -2.015e+01       4.477e-02          -0.036          -0.053          -0.998       3.036e-01         -0.2370
 152       1.444e+01      -2.015e+01       6.469e-02          -0.083          -0.082          -0.993       2.578e-01         -0.2331
 153       1.416e+01      -2.015e+01       9.707e-02          -0.158          -0.129          -0.979       1.984e-01         -0.2378
 154       1.397e+01      -2.015e+01       1.431e-01          -0.330          -0.243          -0.912       1.327e-01         -0.1700
 155       1.387e+01      -2.015e+01       2.081e-01          -0.722          -0.502          -0.476       8.591e-02          0.5155
 156       1.387e+01      -2.015e+01       2.842e-01          -0.723          -0.491           0.485       8.576e-02          0.2878
 157       1.397e+01      -2.014e+01       3.493e-01          -0.332          -0.222           0.917       1.326e-01         -0.5076
 158       1.416e+01      -2.014e+01       3.948e-01          -0.151          -0.101           0.983       1.978e-01         -0.4395
 159       1.444e+01      -2.014e+01       4.261e-01          -0.082          -0.056           0.995       2.575e-01         -0.3583
 160       1.478e+01      -2.014e+01       4.460e-01          -0.037          -0.029           0.999       3.034e-01         -0.3229
 161       1.517e+01      -2.014e+01       4.539e-01          -0.005          -0.010           1.000       3.322e-01         -0.3019
 162       1.558e+01      -2.014e+01       4.489e-01           0.028           0.008           1.000       3.423e-01         -0.2884
 163       1.600e+01      -2.014e+01       4.284e-01           0.071           0.029           0.997       3.331e-01         -0.2542
 164       1.639e+01      -2.014e+01       3.936e-01           0.108           0.047           0.993       3.050e-01         -0.1868
 165       1.673e+01      -2.014e+01       3.522e-01           0.133           0.058           0.989       2.587e-01         -0.1159
 166       1.701e+01      -2.015e+01       3.125e-01           0.153           0.065           0.986       1.970e-01         -0.0598
 167       1.720e+01      -2.015e+01       2.808e-01           0.174           0.073           0.982       1.235e-01         -0.0374
 168       1.730e+01      -2.015e+01       2.578e-01           0.357           0.139           0.924       4.460e-02          0.0642
Strip 7
 169       1.698e+01      -1.926e+01       2.367e-01           0.026          -0.003          -1.000       5.209e-02          0.1187
 170       1.687e+01      -1.926e+01       2.434e-01          -0.091          -0.045          -0.995       1.539e-01          0.2247
 171       1.666e+01      -1.926e+01       2.465e-01           0.033           0.002          -0.999       2.455e-01          0.2942
 172       1.636e+01      -1.926e+01       2.176e-01           0.143           0.046          -0.989       3.272e-01          0.2297
 173       1.599e+01      -1.926e+01       1.553e-01           0.184           0.063          -0.981       3.902e-01          0.0816
 174       1.557e+01      -1.926e+01       8.255e-02           0.156           0.050          -0.986       4.255e-01         -0.1022
 175       1.512e+01      -1.927e+01       3.085e-02           0.073           0.008          -0.997       4.333e-01         -0.2253
 176       1.467e+01      -1.927e+01       1.206e-02           0.010          -0.026          -1.000       4.196e-01         -0.2450
 177       1.425e+01      -1.927e+01       1.724e-02          -0.036          -0.053          -0.998       3.832e-01         -0.2364
 178       1.388e+01      -1.927e+01       3.883e-02          -0.083          -0.082          -0.993       3.254e-01         -0.2327
 179       1.358e+01      -1.926e+01       7.390e-02          -0.158          -0.129          -0.979       2.505e-01         -0.2378
 180       1.337e+01      -1.926e+01       1.238e-01          -0.330          -0.243          -0.912       1.676e-01         -0.1704
 181       1.326e+01      -1.926e+01       1.941e-01          -0.722          -0.502          -0.476       1.085e-01          0.5155
 182       1.326e+01      -1.926e+01       2.766e-01          -0.724          -0.491           0.485       1.082e-01          0.2902
 183       1.337e+01      -1.926e+01       3.471e-01          -0.332          -0.222           0.917       1.674e-01         -0.5062
 184       1.358e+01      -1.926e+01       3.963e-01          -0.152          -0.101           0.983       2.497e-01         -0.4396
 185       1.388e+01      -1.926e+01       4.303e-01          -0.082          -0.056           0.995       3.250e-01         -0.3593
 186       1.425e+01      -1.926e+01       4.518e-01          -0.037          -0.029           0.999       3.829e-01         -0.3247
 187       1.467e+01      -1.926e+01       4.604e-01          -0.005          -0.010           1.000       4.194e-01         -0.3048
 188       1.512e+01      -1.926e+01       4.550e-01           0.028           0.008           1.000       4.321e-01         -0.2924
 189       1.557e+01      -1.926e+01       4.328e-01           0.071           0.029           0.997       4.205e-01         -0.2588
 190       1.599e+01      -1.926e+01       3.951e-01           0.108           0.047           0.993       3.850e-01         -0.1914
 191       1.636e+01      -1.926e+01       3.502e-01           0.133           0.058           0.989       3.266e-01         -0.1200
 192       1.666e+01      -1.926e+01       3.073e-01           0.153           0.065           0.986       2.487e-01         -0.0633
 193       1.687e+01      -1.926e+01       2.729e-01           0.174           0.073           0.982       1.559e-01         -0.0403
 194       1.698e+01      -1.926e+01       2.480e-01           0.357           0.139           0.924       5.631e-02          0.0615
Strip 8
 195       1.662e+01      -1.825e+01       2.245e-01           0.026          -0.003          -1.000       6.434e-02          0.1179
 196       1.650e+01      -1.825e+01       2.317e-01          -0.091          -0.045          -0.995       1.902e-01          0.2241
 197       1.627e+01      -1.825e+01       2.351e-01           0.033           0.002          -0.999       3.033e-01          0.2940
 198       1.594e+01      -1.825e+01       2.037e-01           0.143           0.046          -0.989       4.041e-01          0.2295
 199       1.554e+01      -1.825e+01       1.359e-01           0.184           0.063          -0.981       4.819e-01          0.0814
 200       1.508e+01      -1.825e+01       5.668e-02           0.156           0.050          -0.986       5.255e-01         -0.1025
 201       1.459e+01      -1.825e+01       4.236e-04           0.073           0.008          -0.997       5.352e-01         -0.2257
 202       1.410e+01      -1.825e+01      -2.003e-02           0.010          -0.026          -1.000       5.184e-01         -0.2453
 203       1.364e+01      -1.825e+01      -1.438e-02          -0.036          -0.053          -0.998       4.734e-01         -0.2369
 204       1.324e+01      -1.825e+01       9.107e-03          -0.083          -0.082          -0.993       4.020e-01         -0.2335
 205       1.291e+01      -1.825e+01       4.727e-02          -0.158          -0.129          -0.979       3.094e-01         -0.2394
 206       1.269e+01      -1.825e+01       1.016e-01          -0.330          -0.243          -0.912       2.071e-01         -0.1737
 207       1.257e+01      -1.825e+01       1.781e-01          -0.722          -0.502          -0.477       1.340e-01          0.5135
 208       1.257e+01      -1.825e+01       2.679e-01          -0.724          -0.491           0.484       1.337e-01          0.2943
 209       1.269e+01      -1.825e+01       3.446e-01          -0.332          -0.222           0.917       2.067e-01         -0.5018
 210       1.291e+01      -1.825e+01       3.981e-01          -0.152          -0.101           0.983       3.085e-01         -0.4376
 211       1.324e+01      -1.825e+01       4.351e-01          -0.082          -0.056           0.995       4.015e-01         -0.3584
 212       1.364e+01      -1.825e+01       4.585e-01          -0.037          -0.029           0.999       4.730e-01         -0.3247
 213       1.410e+01      -1.825e+01       4.679e-01          -0.005          -0.010           1.000       5.181e-01         -0.3056
 214       1.459e+01      -1.825e+01       4.620e-01           0.028           0.008           1.000       5.337e-01         -0.2938
 215       1.508e+01      -1.825e+01       4.378e-01           0.071           0.029           0.997       5.195e-01         -0.2606
 216       1.554e+01      -1.825e+01       3.968e-01           0.108           0.047           0.993       4.756e-01         -0.1934
 217       1.594e+01      -1.825e+01       3.480e-01           0.133           0.058           0.989       4.035e-01         -0.1219
 218       1.627e+01      -1.825e+01       3.012e-01           0.153           0.065           0.986       3.073e-01         -0.0649
 219       1.650e+01      -1.825e+01       2.638e-01           0.174           0.073           0.982       1.926e-01         -0.0418
 220       1.662e+01      -1.825e+01       2.368e-01           0.357           0.139           0.924       6.957e-02          0.0600
Strip 9
 221       1.621e+01      -1.711e+01       2.107e-01           0.026          -0.003          -1.000       7.808e-02          0.1175
 222       1.608e+01      -1.711e+01       2.186e-01          -0.091          -0.045          -0.995       2.308e-01          0.2239
 223       1.583e+01      -1.711e+01       2.223e-01           0.033           0.002          -0.999       3.681e-01          0.2939
 224       1.547e+01      -1.711e+01       1.880e-01           0.143           0.046          -0.989       4.904e-01          0.2295
 225       1.503e+01      -1.711e+01       1.140e-01           0.184           0.063          -0.981       5.848e-01          0.0812
 226       1.453e+01      -1.711e+01       2.763e-02           0.156           0.050          -0.986       6.377e-01         -0.1029
 227       1.400e+01      -1.711e+01      -3.374e-02           0.073           0.008          -0.997       6.495e-01         -0.2263
 228       1.346e+01      -1.711e+01      -5.606e-02           0.010          -0.026          -1.000       6.290e-01         -0.2461
 229       1.296e+01      -1.711e+01      -4.990e-02          -0.036          -0.053          -0.998       5.745e-01         -0.2381
 230       1.252e+01      -1.711e+01      -2.427e-02          -0.083          -0.082          -0.993       4.879e-01         -0.2353
 231       1.217e+01      -1.711e+01       1.737e-02          -0.158          -0.129          -0.979       3.755e-01         -0.2424
 232       1.192e+01      -1.711e+01       7.660e-02          -0.330          -0.243          -0.912       2.513e-01         -0.1790
 233       1.179e+01      -1.711e+01       1.601e-01          -0.722          -0.502          -0.477       1.627e-01          0.5100
 234       1.179e+01      -1.711e+01       2.580e-01          -0.724          -0.491           0.484       1.622e-01          0.3002
 235       1.192e+01      -1.711e+01       3.418e-01          -0.332          -0.222           0.917       2.508e-01         -0.4949
 236       1.217e+01      -1.711e+01       4.002e-01          -0.152          -0.101           0.983       3.743e-01         -0.4340
 237       1.252e+01      -1.711e+01       4.405e-01          -0.082          -0.056           0.995       4.872e-01         -0.3563
 238       1.296e+01      -1.711e+01       4.661e-01          -0.037          -0.029           0.999       5.740e-01         -0.3235
 239       1.346e+01      -1.711e+01       4.763e-01          -0.005          -0.010           1.000       6.287e-01         -0.3050
 240       1.400e+01      -1.711e+01       4.698e-01           0.028           0.008           1.000       6.477e-01         -0.2938
 241       1.453e+01      -1.711e+01       4.435e-01           0.071           0.029           0.997       6.304e-01         -0.2610
 242       1.503e+01      -1.711e+01       3.987e-01           0.108           0.047           0.993       5.772e-01         -0.1939
 243       1.547e+01      -1.711e+01       3.455e-01           0.133           0.058           0.989       4.897e-01         -0.1226
 244       1.583e+01      -1.711e+01       2.944e-01           0.153           0.065           0.986       3.729e-01         -0.0656
 245       1.608e+01      -1.711e+01       2.536e-01           0.174           0.073           0.982       2.337e-01         -0.0425
 246       1.621e+01      -1.711e+01       2.241e-01           0.357           0.139           0.924       8.443e-02          0.0591
Strip 10
 247       1.575e+01      -1.586e+01       1.955e-01           0.026          -0.003          -1.000       9.328e-02          0.1171
 248       1.561e+01      -1.586e+01       2.042e-01          -0.091          -0.045          -0.995       2.757e-01          0.2237
 249       1.534e+01      -1.586e+01       2.082e-01           0.033           0.002          -0.999       4.397e-01          0.2938
 250       1.495e+01      -1.586e+01       1.708e-01           0.143           0.046          -0.989       5.858e-01          0.2294
 251       1.447e+01      -1.586e+01       8.993e-02           0.184           0.063          -0.981       6.986e-01          0.0809
 252       1.392e+01      -1.586e+01      -4.394e-03           0.156           0.050          -0.986       7.618e-01         -0.1035
 253       1.334e+01      -1.586e+01      -7.142e-02           0.073           0.008          -0.997       7.759e-01         -0.2273
 254       1.276e+01      -1.586e+01      -9.579e-02           0.010          -0.026          -1.000       7.515e-01         -0.2474
 255       1.221e+01      -1.586e+01      -8.906e-02          -0.036          -0.053          -0.998       6.864e-01         -0.2398
 256       1.173e+01      -1.586e+01      -6.107e-02          -0.083          -0.082          -0.993       5.829e-01         -0.2378
 257       1.134e+01      -1.586e+01      -1.560e-02          -0.158          -0.129          -0.979       4.487e-01         -0.2464
 258       1.107e+01      -1.586e+01       4.907e-02          -0.330          -0.243          -0.912       3.003e-01         -0.1861
 259       1.093e+01      -1.586e+01       1.403e-01          -0.722          -0.502          -0.477       1.944e-01          0.5055
 260       1.093e+01      -1.586e+01       2.472e-01          -0.724          -0.492           0.484       1.937e-01          0.3071
 261       1.107e+01      -1.586e+01       3.386e-01          -0.332          -0.222           0.917       2.996e-01         -0.4863
 262       1.134e+01      -1.586e+01       4.024e-01          -0.152          -0.101           0.983       4.471e-01         -0.4291
 263       1.173e+01      -1.586e+01       4.464e-01          -0.082          -0.056           0.995       5.820e-01         -0.3533
 264       1.221e+01      -1.585e+01       4.744e-01          -0.037          -0.029           0.999       6.858e-01         -0.3214
 265       1.276e+01      -1.585e+01       4.855e-01          -0.005          -0.010           1.000       7.511e-01         -0.3037
 266       1.334e+01      -1.585e+01       4.785e-01           0.028           0.008           1.000       7.738e-01         -0.2929
 267       1.392e+01      -1.586e+01       4.497e-01           0.071           0.029           0.997       7.532e-01         -0.2605
 268       1.447e+01      -1.586e+01       4.009e-01           0.108           0.047           0.993       6.896e-01         -0.1938
 269       1.495e+01      -1.586e+01       3.427e-01           0.133           0.058           0.989       5.851e-01         -0.1227
 270       1.534e+01      -1.586e+01       2.869e-01           0.153           0.065           0.986       4.455e-01         -0.0658
 271       1.561e+01      -1.586e+01       2.424e-01           0.174           0.073           0.982       2.793e-01         -0.0427
 272       1.575e+01      -1.586e+01       2.101e-01           0.357           0.139           0.924       1.009e-01          0.0587
Strip 11
 273       1.526e+01      -1.449e+01       1.790e-01           0.026          -0.003          -1.000       1.099e-01          0.1169
 274       1.511e+01      -1.449e+01       1.885e-01          -0.091          -0.045          -0.995       3.248e-01          0.2235
 275       1.481e+01      -1.449e+01       1.929e-01           0.033           0.002          -0.999       5.179e-01          0.2937
 276       1.439e+01      -1.449e+01       1.520e-01           0.143           0.046          -0.989       6.900e-01          0.2292
 277       1.386e+01      -1.449e+01       6.377e-02           0.184           0.063          -0.981       8.229e-01          0.0805
 278       1.326e+01      -1.449e+01      -3.919e-02           0.156           0.050          -0.986       8.973e-01         -0.1044
 279       1.263e+01      -1.449e+01      -1.123e-01           0.073           0.008          -0.997       9.139e-01         -0.2285
 280       1.199e+01      -1.449e+01      -1.389e-01           0.010          -0.026          -1.000       8.852e-01         -0.2491
 281       1.140e+01      -1.449e+01      -1.316e-01          -0.036          -0.053          -0.998       8.085e-01         -0.2419
 282       1.087e+01      -1.449e+01      -1.011e-01          -0.083          -0.082          -0.993       6.867e-01         -0.2407
 283       1.045e+01      -1.449e+01      -5.142e-02          -0.158          -0.129          -0.979       5.285e-01         -0.2510
 284       1.015e+01      -1.449e+01       1.918e-02          -0.330          -0.243          -0.912       3.538e-01         -0.1942
 285       9.996e+00      -1.449e+01       1.187e-01          -0.721          -0.501          -0.478       2.290e-01          0.5001
 286       9.996e+00      -1.449e+01       2.354e-01          -0.724          -0.492           0.483       2.281e-01          0.3150
 287       1.015e+01      -1.449e+01       3.352e-01          -0.332          -0.222           0.917       3.529e-01         -0.4761
 288       1.045e+01      -1.449e+01       4.049e-01          -0.152          -0.101           0.983       5.266e-01         -0.4233
 289       1.087e+01      -1.449e+01       4.529e-01          -0.082          -0.056           0.995       6.856e-01         -0.3495
 290       1.140e+01      -1.449e+01       4.834e-01          -0.037          -0.029           0.999       8.078e-01         -0.3188
 291       1.199e+01      -1.449e+01       4.955e-01          -0.005          -0.010           1.000       8.847e-01         -0.3018
 292       1.263e+01      -1.449e+01       4.879e-01           0.028           0.008           1.000       9.115e-01         -0.2916
 293       1.326e+01      -1.449e+01       4.565e-01           0.071           0.029           0.997       8.872e-01         -0.2596
 294       1.386e+01      -1.449e+01       4.032e-01           0.108           0.047           0.993       8.123e-01         -0.1933
 295       1.439e+01      -1.449e+01       3.396e-01           0.133           0.058           0.989       6.892e-01         -0.1224
 296       1.481e+01      -1.449e+01       2.788e-01           0.153           0.065           0.986       5.248e-01         -0.0658
 297       1.511e+01      -1.449e+01       2.302e-01           0.174           0.073           0.982       3.290e-01         -0.0428
 298       1.526e+01      -1.449e+01       1.950e-01           0.357           0.139           0.924       1.188e-01          0.0585
Strip 12
 299       1.473e+01      -1.303e+01       1.613e-01           0.026          -0.003          -1.000       1.277e-01          0.1167
 300       1.456e+01      -1.303e+01       1.716e-01          -0.091          -0.045          -0.995       3.775e-01          0.2233
 301       1.424e+01      -1.303e+01       1.764e-01           0.033           0.002          -0.999       6.021e-01          0.2935
 302       1.378e+01      -1.303e+01       1.319e-01           0.143           0.046          -0.989       8.021e-01          0.2289
 303       1.321e+01      -1.303e+01       3.571e-02           0.184           0.063          -0.981       9.565e-01          0.0799
 304       1.255e+01      -1.303e+01      -7.650e-02           0.156           0.050          -0.986       1.043e+00         -0.1054
 305       1.186e+01      -1.303e+01      -1.562e-01           0.073           0.008          -0.997       1.062e+00         -0.2300
 306       1.117e+01      -1.303e+01      -1.852e-01           0.010          -0.026          -1.000       1.029e+00         -0.2510
 307       1.052e+01      -1.303e+01      -1.772e-01          -0.036          -0.053          -0.998       9.399e-01         -0.2444
 308       9.947e+00      -1.303e+01      -1.439e-01          -0.083          -0.082          -0.993       7.982e-01         -0.2441
 309       9.485e+00      -1.303e+01      -8.984e-02          -0.158          -0.129          -0.979       6.144e-01         -0.2561
 310       9.162e+00      -1.303e+01      -1.289e-02          -0.329          -0.242          -0.912       4.113e-01         -0.2033
 311       8.995e+00      -1.303e+01       9.559e-02          -0.721          -0.501          -0.478       2.663e-01          0.4940
 312       8.995e+00      -1.303e+01       2.228e-01          -0.724          -0.492           0.483       2.651e-01          0.3236
 313       9.162e+00      -1.303e+01       3.316e-01          -0.333          -0.222           0.917       4.101e-01         -0.4645
 314       9.485e+00      -1.303e+01       4.075e-01          -0.152          -0.101           0.983       6.122e-01         -0.4166
 315       9.947e+00      -1.303e+01       4.598e-01          -0.082          -0.056           0.995       7.969e-01         -0.3451
 316       1.052e+01      -1.303e+01       4.931e-01          -0.037          -0.029           0.999       9.390e-01         -0.3157
 317       1.117e+01      -1.303e+01       5.063e-01          -0.005          -0.010           1.000       1.028e+00         -0.2995
 318       1.186e+01      -1.303e+01       4.980e-01           0.028           0.008           1.000       1.060e+00         -0.2899
 319       1.255e+01      -1.303e+01       4.637e-01           0.071           0.029           0.997       1.031e+00         -0.2584
 320       1.321e+01      -1.303e+01       4.056e-01           0.108           0.047           0.993       9.443e-01         -0.1925
 321       1.378e+01      -1.303e+01       3.364e-01           0.133           0.057           0.989       8.012e-01         -0.1220
 322       1.424e+01      -1.303e+01       2.701e-01           0.153           0.065           0.986       6.101e-01         -0.0656
 323       1.456e+01      -1.303e+01       2.171e-01           0.174           0.073           0.982       3.824e-01         -0.0428
 324       1.473e+01      -1.303e+01       1.787e-01           0.357           0.139           0.924       1.382e-01          0.0583
Strip 13
 325       1.417e+01      -1.148e+01       1.426e-01           0.026          -0.003          -1.000       1.466e-01          0.1164
 326       1.399e+01      -1.148e+01       1.538e-01          -0.091          -0.045          -0.995       4.334e-01          0.2230
 327       1.364e+01      -1.148e+01       1.590e-01           0.033           0.002          -0.999       6.911e-01          0.2932
 328       1.314e+01      -1.148e+01       1.105e-01           0.143           0.046          -0.989       9.207e-01          0.2285
 329       1.251e+01      -1.148e+01       5.944e-03           0.184           0.063          -0.981       1.098e+00          0.0792
 330       1.180e+01      -1.148e+01      -1.161e-01           0.156           0.050          -0.986       1.197e+00         -0.1066
 331       1.105e+01      -1.148e+01      -2.028e-01           0.073           0.008          -0.997       1.219e+00         -0.2318
 332       1.030e+01      -1.148e+01      -2.343e-01           0.010          -0.026          -1.000       1.181e+00         -0.2532
 333       9.592e+00      -1.148e+01      -2.256e-01          -0.036          -0.053          -0.998       1.079e+00         -0.2472
 334       8.968e+00      -1.148e+01      -1.894e-01          -0.083          -0.082          -0.993       9.164e-01         -0.2478
 335       8.466e+00      -1.148e+01      -1.306e-01          -0.158          -0.129          -0.979       7.054e-01         -0.2616
 336       8.114e+00      -1.148e+01      -4.692e-02          -0.329          -0.242          -0.913       4.722e-01         -0.2132
 337       7.933e+00      -1.148e+01       7.107e-02          -0.721          -0.501          -0.478       3.057e-01          0.4873
 338       7.933e+00      -1.148e+01       2.094e-01          -0.724          -0.492           0.483       3.043e-01          0.3329
 339       8.114e+00      -1.148e+01       3.277e-01          -0.333          -0.222           0.917       4.708e-01         -0.4518
 340       8.466e+00      -1.148e+01       4.103e-01          -0.152          -0.101           0.983       7.027e-01         -0.4090
 341       8.968e+00      -1.148e+01       4.672e-01          -0.082          -0.056           0.995       9.147e-01         -0.3402
 342       9.592e+00      -1.148e+01       5.034e-01          -0.037          -0.029           0.999       1.078e+00         -0.3122
 343       1.030e+01      -1.148e+01       5.177e-01          -0.005          -0.010           1.000       1.181e+00         -0.2969
 344       1.105e+01      -1.148e+01       5.087e-01           0.028           0.008           1.000       1.216e+00         -0.2879
 345       1.180e+01      -1.148e+01       4.714e-01           0.071           0.029           0.997       1.184e+00         -0.2570
 346       1.251e+01      -1.148e+01       4.082e-01           0.108           0.047           0.993       1.084e+00         -0.1916
 347       1.314e+01      -1.148e+01       3.329e-01           0.133           0.057           0.989       9.197e-01         -0.1214
 348       1.364e+01      -1.148e+01       2.608e-01           0.153           0.065           0.986       7.004e-01         -0.0653
 349       1.399e+01      -1.148e+01       2.032e-01           0.174           0.073           0.982       4.390e-01         -0.0428
 350       1.417e+01      -1.148e+01       1.615e-01           0.357           0.139           0.924       1.586e-01          0.0580
Strip 14
 351       1.358e+01      -9.849e+00       1.228e-01           0.026          -0.003          -1.000       1.663e-01          0.1159
 352       1.339e+01      -9.849e+00       1.350e-01          -0.091          -0.045          -0.995       4.916e-01          0.2227
 353       1.300e+01      -9.849e+00       1.406e-01           0.033           0.002          -0.999       7.839e-01          0.2929
 354       1.246e+01      -9.849e+00       8.810e-02           0.143           0.046          -0.989       1.044e+00          0.2280
 355       1.178e+01      -9.849e+00      -2.533e-02           0.184           0.063          -0.981       1.245e+00          0.0783
 356       1.102e+01      -9.849e+00      -1.577e-01           0.156           0.050          -0.986       1.358e+00         -0.1080
 357       1.020e+01      -9.849e+00      -2.517e-01           0.073           0.008          -0.997       1.383e+00         -0.2338
 358       9.384e+00      -9.849e+00      -2.859e-01           0.010          -0.026          -1.000       1.340e+00         -0.2557
 359       8.616e+00      -9.849e+00      -2.765e-01          -0.036          -0.053          -0.998       1.224e+00         -0.2502
 360       7.940e+00      -9.849e+00      -2.372e-01          -0.083          -0.082          -0.993       1.039e+00         -0.2516
 361       7.395e+00      -9.849e+00      -1.734e-01          -0.158          -0.129          -0.979       8.001e-01         -0.2674
 362       7.013e+00      -9.849e+00      -8.266e-02          -0.329          -0.242          -0.913       5.357e-01         -0.2236
 363       6.817e+00      -9.849e+00       4.530e-02          -0.721          -0.501          -0.478       3.468e-01          0.4799
 364       6.817e+00      -9.848e+00       1.954e-01          -0.725          -0.492           0.483       3.451e-01          0.3426
 365       7.013e+00      -9.848e+00       3.237e-01          -0.333          -0.222           0.916       5.339e-01         -0.4379
 366       7.395e+00      -9.848e+00       4.132e-01          -0.152          -0.101           0.983       7.969e-01         -0.4006
 367       7.940e+00      -9.848e+00       4.749e-01          -0.082          -0.056           0.995       1.037e+00         -0.3347
 368       8.616e+00      -9.848e+00       5.141e-01          -0.037          -0.029           0.999       1.222e+00         -0.3082
 369       9.384e+00      -9.848e+00       5.298e-01          -0.005          -0.010           1.000       1.339e+00         -0.2939
 370       1.020e+01      -9.848e+00       5.199e-01           0.028           0.008           1.000       1.380e+00         -0.2857
 371       1.102e+01      -9.848e+00       4.795e-01           0.071           0.029           0.997       1.343e+00         -0.2555
 372       1.178e+01      -9.848e+00       4.110e-01           0.108           0.047           0.993       1.230e+00         -0.1906
 373       1.246e+01      -9.848e+00       3.293e-01           0.133           0.057           0.989       1.043e+00         -0.1210
 374       1.300e+01      -9.848e+00       2.511e-01           0.153           0.065           0.986       7.944e-01         -0.0651
 375       1.339e+01      -9.848e+00       1.886e-01           0.174           0.073           0.982       4.979e-01         -0.0429
 376       1.358e+01      -9.849e+00       1.434e-01           0.357           0.139           0.924       1.799e-01          0.0576
Strip 15
 377       1.297e+01      -8.151e+00       1.023e-01           0.026          -0.003          -1.000       1.864e-01          0.1153
 378       1.276e+01      -8.151e+00       1.154e-01          -0.091          -0.045          -0.995       5.511e-01          0.2221
 379       1.234e+01      -8.151e+00       1.216e-01           0.033           0.002          -0.999       8.788e-01          0.2923
 380       1.176e+01      -8.151e+00       6.474e-02           0.143           0.046          -0.989       1.171e+00          0.2272
 381       1.102e+01      -8.152e+00      -5.789e-02           0.184           0.063          -0.981       1.396e+00          0.0771
 382       1.019e+01      -8.152e+00      -2.010e-01           0.156           0.050          -0.986       1.522e+00         -0.1099
 383       9.312e+00      -8.152e+00      -3.027e-01           0.073           0.008          -0.997       1.551e+00         -0.2362
 384       8.430e+00      -8.152e+00      -3.396e-01           0.010          -0.026          -1.000       1.502e+00         -0.2584
 385       7.600e+00      -8.152e+00      -3.294e-01          -0.036          -0.053          -0.998       1.372e+00         -0.2534
 386       6.869e+00      -8.152e+00      -2.870e-01          -0.083          -0.082          -0.993       1.165e+00         -0.2555
 387       6.280e+00      -8.152e+00      -2.180e-01          -0.158          -0.129          -0.979       8.971e-01         -0.2730
 388       5.867e+00      -8.152e+00      -1.199e-01          -0.329          -0.242          -0.913       6.006e-01         -0.2341
 389       5.654e+00      -8.151e+00       1.848e-02          -0.721          -0.501          -0.479       3.888e-01          0.4720
 390       5.654e+00      -8.151e+00       1.807e-01          -0.725          -0.492           0.483       3.869e-01          0.3529
 391       5.867e+00      -8.151e+00       3.194e-01          -0.333          -0.222           0.916       5.985e-01         -0.4223
 392       6.280e+00      -8.151e+00       4.162e-01          -0.152          -0.101           0.983       8.934e-01         -0.3910
 393       6.869e+00      -8.151e+00       4.830e-01          -0.082          -0.056           0.995       1.163e+00         -0.3282
 394       7.600e+00      -8.151e+00       5.254e-01          -0.037          -0.029           0.999       1.371e+00         -0.3037
 395       8.430e+00      -8.151e+00       5.423e-01          -0.005          -0.010           1.000       1.501e+00         -0.2906
 396       9.312e+00      -8.151e+00       5.316e-01           0.028           0.008           1.000       1.547e+00         -0.2833
 397       1.019e+01      -8.151e+00       4.880e-01           0.071           0.029           0.997       1.506e+00         -0.2540
 398       1.102e+01      -8.151e+00       4.138e-01           0.108           0.047           0.993       1.379e+00         -0.1899
 399       1.176e+01      -8.151e+00       3.256e-01           0.133           0.057           0.989       1.170e+00         -0.1206
 400       1.234e+01      -8.151e+00       2.410e-01           0.153           0.065           0.986       8.907e-01         -0.0652
 401       1.276e+01      -8.151e+00       1.734e-01           0.174           0.073           0.982       5.583e-01         -0.0433
 402       1.297e+01      -8.151e+00       1.245e-01           0.357           0.139           0.924       2.017e-01          0.0570
Strip 16
 403       1.234e+01      -6.398e+00       8.109e-02           0.026          -0.003          -1.000       2.067e-01          0.1143
 404       1.211e+01      -6.398e+00       9.525e-02          -0.091          -0.045          -0.995       6.110e-01          0.2211
 405       1.166e+01      -6.398e+00       1.018e-01           0.033           0.002          -0.999       9.743e-01          0.2913
 406       1.103e+01      -6.398e+00       4.062e-02           0.143           0.046          -0.989       1.298e+00          0.2260
 407       1.024e+01      -6.399e+00      -9.152e-02           0.184           0.063          -0.981       1.547e+00          0.0752
 408       9.346e+00      -6.399e+00      -2.457e-01           0.156           0.050          -0.986       1.687e+00         -0.1127
 409       8.396e+00      -6.399e+00      -3.553e-01           0.073           0.008          -0.997       1.719e+00         -0.2394
 410       7.445e+00      -6.399e+00      -3.951e-01           0.010          -0.026          -1.000       1.665e+00         -0.2617
 411       6.550e+00      -6.399e+00      -3.841e-01          -0.036          -0.053          -0.998       1.521e+00         -0.2565
 412       5.763e+00      -6.399e+00      -3.384e-01          -0.083          -0.082          -0.993       1.292e+00         -0.2588
 413       5.128e+00      -6.399e+00      -2.640e-01          -0.158          -0.129          -0.979       9.945e-01         -0.2776
 414       4.683e+00      -6.399e+00      -1.583e-01          -0.329          -0.242          -0.913       6.659e-01         -0.2436
 415       4.454e+00      -6.399e+00      -9.231e-03          -0.721          -0.501          -0.479       4.311e-01          0.4639
 416       4.454e+00      -6.398e+00       1.656e-01          -0.725          -0.492           0.482       4.288e-01          0.3638
 417       4.683e+00      -6.398e+00       3.151e-01          -0.333          -0.222           0.916       6.634e-01         -0.4044
 418       5.128e+00      -6.398e+00       4.194e-01          -0.152          -0.101           0.983       9.904e-01         -0.3792
 419       5.763e+00      -6.398e+00       4.913e-01          -0.082          -0.056           0.995       1.289e+00         -0.3203
 420       6.550e+00      -6.398e+00       5.370e-01          -0.037          -0.029           0.999       1.519e+00         -0.2981
 421       7.445e+00      -6.398e+00       5.552e-01          -0.005          -0.010           1.000       1.664e+00         -0.2868
 422       8.396e+00      -6.398e+00       5.437e-01           0.028           0.008           1.000       1.715e+00         -0.2809
 423       9.346e+00      -6.398e+00       4.967e-01           0.071           0.029           0.997       1.669e+00         -0.2527
 424       1.024e+01      -6.398e+00       4.168e-01           0.108           0.047           0.993       1.528e+00         -0.1895
 425       1.103e+01      -6.398e+00       3.217e-01           0.133           0.057           0.989       1.297e+00         -0.1207
 426       1.166e+01      -6.398e+00       2.306e-01           0.153           0.065           0.986       9.874e-01         -0.0656
 427       1.211e+01      -6.398e+00       1.578e-01           0.174           0.073           0.982       6.189e-01         -0.0441
 428       1.234e+01      -6.398e+00       1.050e-01           0.357           0.139           0.924       2.236e-01          0.0559
Strip 17
 429       1.169e+01      -4.602e+00       5.936e-02           0.026          -0.003          -1.000       2.266e-01          0.1123
 430       1.144e+01      -4.602e+00       7.456e-02          -0.091          -0.045          -0.995       6.699e-01          0.2194
 431       1.096e+01      -4.602e+00       8.163e-02           0.033           0.002          -0.999       1.068e+00          0.2896
 432       1.028e+01      -4.602e+00       1.590e-02           0.143           0.046          -0.989       1.423e+00          0.2236
 433       9.437e+00      -4.602e+00      -1.260e-01           0.184           0.063          -0.981       1.697e+00          0.0716
 434       8.476e+00      -4.602e+00      -2.916e-01           0.156           0.051          -0.986       1.850e+00         -0.1174
 435       7.456e+00      -4.602e+00      -4.092e-01           0.073           0.008          -0.997       1.885e+00         -0.2443
 436       6.436e+00      -4.602e+00      -4.520e-01           0.010          -0.026          -1.000       1.826e+00         -0.2653
 437       5.475e+00      -4.602e+00      -4.402e-01          -0.036          -0.053          -0.998       1.668e+00         -0.2586
 438       4.629e+00      -4.602e+00      -3.911e-01          -0.083          -0.082          -0.993       1.417e+00         -0.2597
 439       3.948e+00      -4.602e+00      -3.112e-01          -0.158          -0.129          -0.979       1.091e+00         -0.2785
 440       3.470e+00      -4.602e+00      -1.977e-01          -0.329          -0.242          -0.913       7.302e-01         -0.2485
 441       3.224e+00      -4.602e+00      -3.763e-02          -0.721          -0.501          -0.479       4.728e-01          0.4575
 442       3.224e+00      -4.602e+00       1.501e-01          -0.725          -0.492           0.482       4.702e-01          0.3762
 443       3.470e+00      -4.602e+00       3.106e-01          -0.333          -0.222           0.916       7.274e-01         -0.3815
 444       3.948e+00      -4.601e+00       4.226e-01          -0.152          -0.101           0.983       1.086e+00         -0.3630
 445       4.629e+00      -4.601e+00       4.998e-01          -0.082          -0.056           0.995       1.414e+00         -0.3090
 446       5.475e+00      -4.601e+00       5.489e-01          -0.037          -0.029           0.999       1.666e+00         -0.2903
 447       6.436e+00      -4.601e+00       5.684e-01          -0.005          -0.010           1.000       1.825e+00         -0.2820
 448       7.456e+00      -4.601e+00       5.561e-01           0.028           0.008           1.000       1.880e+00         -0.2786
 449       8.476e+00      -4.601e+00       5.056e-01           0.071           0.029           0.997       1.830e+00         -0.2524
 450       9.437e+00      -4.601e+00       4.198e-01           0.108           0.047           0.993       1.676e+00         -0.1903
 451       1.028e+01      -4.602e+00       3.177e-01           0.133           0.057           0.989       1.422e+00         -0.1221
 452       1.096e+01      -4.602e+00       2.198e-01           0.153           0.065           0.986       1.083e+00         -0.0671
 453       1.144e+01      -4.602e+00       1.417e-01           0.174           0.073           0.982       6.786e-01         -0.0459
 454       1.169e+01      -4.602e+00       8.504e-02           0.357           0.139           0.924       2.452e-01          0.0537
Strip 18
 455       1.103e+01      -2.774e+00       3.724e-02           0.026          -0.003          -1.000       2.458e-01          0.1092
 456       1.076e+01      -2.774e+00       5.351e-02          -0.091          -0.045          -0.995       7.267e-01          0.2164
 457       1.025e+01      -2.774e+00       6.107e-02           0.033           0.002          -0.999       1.159e+00          0.2862
 458       9.525e+00      -2.774e+00      -9.252e-03           0.143           0.046          -0.989       1.544e+00          0.2184
 459       8.620e+00      -2.774e+00      -1.611e-01           0.184           0.063          -0.981       1.841e+00          0.0634
 460       7.592e+00      -2.774e+00      -3.382e-01           0.156           0.051          -0.986       2.007e+00         -0.1276
 461       6.500e+00      -2.774e+00      -4.641e-01           0.073           0.008          -0.997       2.045e+00         -0.2526
 462       5.409e+00      -2.774e+00      -5.098e-01           0.010          -0.026          -1.000       1.981e+00         -0.2684
 463       4.381e+00      -2.774e+00      -4.972e-01          -0.036          -0.053          -0.998       1.809e+00         -0.2558
 464       3.476e+00      -2.774e+00      -4.447e-01          -0.083          -0.082          -0.993       1.537e+00         -0.2518
 465       2.747e+00      -2.774e+00      -3.593e-01          -0.158          -0.129          -0.979       1.183e+00         -0.2675
 466       2.236e+00      -2.774e+00      -2.378e-01          -0.329          -0.242          -0.913       7.922e-01         -0.2397
 467       1.972e+00      -2.774e+00      -6.652e-02          -0.721          -0.501          -0.479       5.129e-01          0.4587
 468       1.972e+00      -2.774e+00       1.343e-01          -0.725          -0.492           0.482       5.100e-01          0.3954
 469       2.236e+00      -2.774e+00       3.060e-01          -0.333          -0.222           0.916       7.890e-01         -0.3460
 470       2.747e+00      -2.774e+00       4.259e-01          -0.152          -0.101           0.983       1.178e+00         -0.3356
 471       3.476e+00      -2.773e+00       5.085e-01          -0.082          -0.056           0.995       1.534e+00         -0.2891
 472       4.381e+00      -2.773e+00       5.610e-01          -0.037          -0.029           0.999       1.807e+00         -0.2766
 473       5.409e+00      -2.773e+00       5.819e-01          -0.005          -0.010           1.000       1.980e+00         -0.2743
 474       6.500e+00      -2.773e+00       5.687e-01           0.028           0.008           1.000       2.040e+00         -0.2765
 475       7.592e+00      -2.773e+00       5.147e-01           0.071           0.029           0.997       1.985e+00         -0.2545
 476       8.620e+00      -2.774e+00       4.229e-01           0.108           0.047           0.993       1.818e+00         -0.1949
 477       9.525e+00      -2.774e+00       3.136e-01           0.133           0.057           0.989       1.542e+00         -0.1270
 478       1.025e+01      -2.774e+00       2.089e-01           0.153           0.065           0.986       1.174e+00         -0.0714
 479       1.076e+01      -2.774e+00       1.253e-01           0.174           0.073           0.982       7.362e-01         -0.0499
 480       1.103e+01      -2.774e+00       6.472e-02           0.357           0.139           0.924       2.660e-01          0.0498
Strip 19
 481       1.036e+01      -9.267e-01       1.489e-02           0.026          -0.003          -1.000       2.639e-01          0.1049
 482       1.008e+01      -9.267e-01       3.224e-02          -0.091          -0.045          -0.995       7.800e-01          0.2120
 483       9.536e+00      -9.267e-01       4.030e-02           0.033           0.002          -0.999       1.244e+00          0.2790
 484       8.759e+00      -9.267e-01      -3.467e-02           0.143           0.046          -0.989       1.657e+00          0.2017
 485       7.794e+00      -9.267e-01      -1.965e-01           0.184           0.063          -0.981       1.975e+00          0.0353
 486       6.698e+00      -9.267e-01      -3.853e-01           0.156           0.051          -0.986       2.154e+00         -0.1568
 487       5.535e+00      -9.268e-01      -5.195e-01           0.073           0.008          -0.997       2.194e+00         -0.2669
 488       4.371e+00      -9.268e-01      -5.683e-01           0.010          -0.026          -1.000       2.126e+00         -0.2626
 489       3.275e+00      -9.268e-01      -5.548e-01          -0.036          -0.053          -0.998       1.942e+00         -0.2322
 490       2.310e+00      -9.267e-01      -4.988e-01          -0.083          -0.082          -0.993       1.649e+00         -0.2117
 491       1.533e+00      -9.267e-01      -4.078e-01          -0.158          -0.129          -0.979       1.270e+00         -0.2108
 492       9.884e-01      -9.267e-01      -2.783e-01          -0.329          -0.242          -0.913       8.503e-01         -0.1778
 493       7.078e-01      -9.267e-01      -9.572e-02          -0.721          -0.501          -0.479       5.505e-01          0.4708
 494       7.078e-01      -9.267e-01       1.184e-01          -0.725          -0.492           0.482       5.473e-01          0.4285
 495       9.884e-01      -9.266e-01       3.014e-01          -0.333          -0.222           0.916       8.468e-01         -0.2546
 496       1.533e+00      -9.266e-01       4.292e-01          -0.152          -0.101           0.983       1.264e+00         -0.2636
 497       2.310e+00      -9.266e-01       5.173e-01          -0.082          -0.056           0.995       1.646e+00         -0.2408
 498       3.275e+00      -9.266e-01       5.732e-01          -0.037          -0.029           0.999       1.940e+00         -0.2458
 499       4.371e+00      -9.266e-01       5.955e-01          -0.005          -0.010           1.000       2.125e+00         -0.2576
 500       5.535e+00      -9.266e-01       5.814e-01           0.028           0.008           1.000       2.189e+00         -0.2738
 501       6.698e+00      -9.266e-01       5.238e-01           0.071           0.029           0.997       2.131e+00         -0.2653
 502       7.794e+00      -9.266e-01       4.260e-01           0.108           0.047           0.993       1.951e+00         -0.2133
 503       8.759e+00      -9.266e-01       3.095e-01           0.133           0.057           0.989       1.655e+00         -0.1453
 504       9.536e+00      -9.267e-01       1.979e-01           0.153           0.065           0.986       1.261e+00         -0.0856
 505       1.008e+01      -9.267e-01       1.088e-01           0.174           0.073           0.982       7.902e-01         -0.0599
 506       1.036e+01      -9.267e-01       4.419e-02           0.357           0.139           0.924       2.855e-01          0.0416
Strip 20
 507       1.036e+01       9.267e-01       1.489e-02           0.026           0.003          -1.000       2.639e-01          0.1049
 508       1.008e+01       9.267e-01       3.224e-02          -0.091           0.045          -0.995       7.800e-01          0.2120
 509       9.536e+00       9.267e-01       4.030e-02           0.033          -0.002          -0.999       1.244e+00          0.2790
 510       8.759e+00       9.267e-01      -3.467e-02           0.143          -0.046          -0.989       1.657e+00          0.2017
 511       7.794e+00       9.267e-01      -1.965e-01           0.184          -0.063          -0.981       1.975e+00          0.0353
 512       6.698e+00       9.267e-01      -3.853e-01           0.156          -0.051          -0.986       2.154e+00         -0.1568
 513       5.535e+00       9.268e-01      -5.195e-01           0.073          -0.008          -0.997       2.194e+00         -0.2669
 514       4.371e+00       9.268e-01      -5.683e-01           0.010           0.026          -1.000       2.126e+00         -0.2626
 515       3.275e+00       9.268e-01      -5.548e-01          -0.036           0.053          -0.998       1.942e+00         -0.2322
 516       2.310e+00       9.267e-01      -4.988e-01          -0.083           0.082          -0.993       1.649e+00         -0.2117
 517       1.533e+00       9.267e-01      -4.078e-01          -0.158           0.129          -0.979       1.270e+00         -0.2108
 518       9.884e-01       9.267e-01      -2.783e-01          -0.329           0.242          -0.913       8.503e-01         -0.1778
 519       7.078e-01       9.267e-01      -9.572e-02          -0.721           0.501          -0.479       5.505e-01          0.4708
 520       7.078e-01       9.267e-01       1.184e-01          -0.725           0.492           0.482       5.473e-01          0.4285
 521       9.884e-01       9.266e-01       3.014e-01          -0.333           0.222           0.916       8.468e-01         -0.2546
 522       1.533e+00       9.266e-01       4.292e-01          -0.152           0.101           0.983       1.264e+00         -0.2636
 523       2.310e+00       9.266e-01       5.173e-01          -0.082           0.056           0.995       1.646e+00         -0.2408
 524       3.275e+00       9.266e-01       5.732e-01          -0.037           0.029           0.999       1.940e+00         -0.2458
 525       4.371e+00       9.266e-01       5.955e-01          -0.005           0.010           1.000       2.125e+00         -0.2576
 526       5.535e+00       9.266e-01       5.814e-01           0.028          -0.008           1.000       2.189e+00         -0.2738
 527       6.698e+00       9.266e-01       5.238e-01           0.071          -0.029           0.997       2.131e+00         -0.2653
 528       7.794e+00       9.266e-01       4.260e-01           0.108          -0.047           0.993       1.951e+00         -0.2133
 529       8.759e+00       9.266e-01       3.095e-01           0.133          -0.057           0.989       1.655e+00         -0.1453
 530       9.536e+00       9.267e-01       1.979e-01           0.153          -0.065           0.986       1.261e+00         -0.0856
 531       1.008e+01       9.267e-01       1.088e-01           0.174          -0.073           0.982       7.902e-01         -0.0599
 532       1.036e+01       9.267e-01       4.419e-02           0.357          -0.139           0.924       2.855e-01          0.0416
Strip 21
 533       1.103e+01       2.774e+00       3.724e-02           0.026           0.003          -1.000       2.458e-01          0.1092
 534       1.076e+01       2.774e+00       5.351e-02          -0.091           0.045          -0.995       7.267e-01          0.2164
 535       1.025e+01       2.774e+00       6.107e-02           0.033          -0.002          -0.999       1.159e+00          0.2862
 536       9.525e+00       2.774e+00      -9.252e-03           0.143          -0.046          -0.989       1.544e+00          0.2184
 537       8.620e+00       2.774e+00      -1.611e-01           0.184          -0.063          -0.981       1.841e+00          0.0634
 538       7.592e+00       2.774e+00      -3.382e-01           0.156          -0.051          -0.986       2.007e+00         -0.1276
 539       6.500e+00       2.774e+00      -4.641e-01           0.073          -0.008          -0.997       2.045e+00         -0.2526
 540       5.409e+00       2.774e+00      -5.098e-01           0.010           0.026          -1.000       1.981e+00         -0.2684
 541       4.381e+00       2.774e+00      -4.972e-01          -0.036           0.053          -0.998       1.809e+00         -0.2558
 542       3.476e+00       2.774e+00      -4.447e-01          -0.083           0.082          -0.993       1.537e+00         -0.2518
 543       2.747e+00       2.774e+00      -3.593e-01          -0.158           0.129          -0.979       1.183e+00         -0.2675
 544       2.236e+00       2.774e+00      -2.378e-01          -0.329           0.242          -0.913       7.922e-01         -0.2397
 545       1.972e+00       2.774e+00      -6.652e-02          -0.721           0.501          -0.479       5.129e-01          0.4587
 546       1.972e+00       2.774e+00       1.343e-01          -0.725           0.492           0.482       5.100e-01          0.3954
 547       2.236e+00       2.774e+00       3.060e-01          -0.333           0.222           0.916       7.890e-01         -0.3460
 548       2.747e+00       2.774e+00       4.259e-01          -0.152           0.101           0.983       1.178e+00         -0.3356
 549       3.476e+00       2.773e+00       5.085e-01          -0.082           0.056           0.995       1.534e+00         -0.2891
 550       4.381e+00       2.773e+00       5.610e-01          -0.037           0.029           0.999       1.807e+00         -0.2766
 551       5.409e+00       2.773e+00       5.819e-01          -0.005           0.010           1.000       1.980e+00         -0.2743
 552       6.500e+00       2.773e+00       5.687e-01           0.028          -0.008           1.000       2.040e+00         -0.2765
 553       7.592e+00       2.773e+00       5.147e-01           0.071          -0.029           0.997       1.985e+00         -0.2545
 554       8.620e+00       2.774e+00       4.229e-01           0.108          -0.047           0.993       1.818e+00         -0.1949
 555       9.525e+00       2.774e+00       3.136e-01           0.133          -0.057           0.989       1.542e+00         -0.1270
 556       1.025e+01       2.774e+00       2.089e-01           0.153          -0.065           0.986       1.174e+00         -0.0714
 557       1.076e+01       2.774e+00       1.253e-01           0.174          -0.073           0.982       7.362e-01         -0.0499
 558       1.103e+01       2.774e+00       6.472e-02           0.357          -0.139           0.924       2.660e-01          0.0498
Strip 22
 559       1.169e+01       4.602e+00       5.936e-02           0.026           0.003          -1.000       2.266e-01          0.1123
 560       1.144e+01       4.602e+00       7.456e-02          -0.091           0.045          -0.995       6.699e-01          0.2194
 561       1.096e+01       4.602e+00       8.163e-02           0.033          -0.002          -0.999       1.068e+00          0.2896
 562       1.028e+01       4.602e+00       1.590e-02           0.143          -0.046          -0.989       1.423e+00          0.2236
 563       9.437e+00       4.602e+00      -1.260e-01           0.184          -0.063          -0.981       1.697e+00          0.0716
 564       8.476e+00       4.602e+00      -2.916e-01           0.156          -0.051          -0.986       1.850e+00         -0.1174
 565       7.456e+00       4.602e+00      -4.092e-01           0.073          -0.008          -0.997       1.885e+00         -0.2443
 566       6.436e+00       4.602e+00      -4.520e-01           0.010           0.026          -1.000       1.826e+00         -0.2653
 567       5.475e+00       4.602e+00      -4.402e-01          -0.036           0.053          -0.998       1.668e+00         -0.2586
 568       4.629e+00       4.602e+00      -3.911e-01          -0.083           0.082          -0.993       1.417e+00         -0.2597
[...]
 852       1.517e+01       2.015e+01       3.997e-02           0.010           0.026          -1.000       3.324e-01         -0.2451
 853       1.478e+01       2.015e+01       4.477e-02          -0.036           0.053          -0.998       3.036e-01         -0.2370
 854       1.444e+01       2.015e+01       6.469e-02          -0.083           0.082          -0.993       2.578e-01         -0.2331
 855       1.416e+01       2.015e+01       9.707e-02          -0.158           0.129          -0.979       1.984e-01         -0.2378
 856       1.397e+01       2.015e+01       1.431e-01          -0.330           0.243          -0.912       1.327e-01         -0.1700
 857       1.387e+01       2.015e+01       2.081e-01          -0.722           0.502          -0.476       8.591e-02          0.5155
 858       1.387e+01       2.015e+01       2.842e-01          -0.723           0.491           0.485       8.576e-02          0.2878
 859       1.397e+01       2.014e+01       3.493e-01          -0.332           0.222           0.917       1.326e-01         -0.5076
 860       1.416e+01       2.014e+01       3.948e-01          -0.151           0.101           0.983       1.978e-01         -0.4395
 861       1.444e+01       2.014e+01       4.261e-01          -0.082           0.056           0.995       2.575e-01         -0.3583
 862       1.478e+01       2.014e+01       4.460e-01          -0.037           0.029           0.999       3.034e-01         -0.3229
 863       1.517e+01       2.014e+01       4.539e-01          -0.005           0.010           1.000       3.322e-01         -0.3019
 864       1.558e+01       2.014e+01       4.489e-01           0.028          -0.008           1.000       3.423e-01         -0.2884
 865       1.600e+01       2.014e+01       4.284e-01           0.071          -0.029           0.997       3.331e-01         -0.2542
 866       1.639e+01       2.014e+01       3.936e-01           0.108          -0.047           0.993       3.050e-01         -0.1868
 867       1.673e+01       2.014e+01       3.522e-01           0.133          -0.058           0.989       2.587e-01         -0.1159
 868       1.701e+01       2.015e+01       3.125e-01           0.153          -0.065           0.986       1.970e-01         -0.0598
 869       1.720e+01       2.015e+01       2.808e-01           0.174          -0.073           0.982       1.235e-01         -0.0374
 870       1.730e+01       2.015e+01       2.578e-01           0.357          -0.139           0.924       4.460e-02          0.0642
Strip 34
 871       1.757e+01       2.089e+01       2.564e-01           0.026           0.003          -1.000       3.176e-02          0.1218
 872       1.748e+01       2.089e+01       2.622e-01          -0.091           0.045          -0.995       9.384e-02          0.2268
 873       1.730e+01       2.089e+01       2.648e-01           0.033          -0.002          -0.999       1.497e-01          0.2956
 874       1.704e+01       2.089e+01       2.400e-01           0.143          -0.046          -0.989       1.995e-01          0.2316
 875       1.672e+01       2.089e+01       1.865e-01           0.184          -0.063          -0.981       2.379e-01          0.0844
 876       1.636e+01       2.089e+01       1.240e-01           0.156          -0.050          -0.986       2.594e-01         -0.0989
 877       1.597e+01       2.089e+01       7.967e-02           0.073          -0.008          -0.997       2.642e-01         -0.2229
 878       1.559e+01       2.089e+01       6.354e-02           0.010           0.026          -1.000       2.558e-01         -0.2447
 879       1.523e+01       2.089e+01       6.799e-02          -0.036           0.053          -0.998       2.336e-01         -0.2383
 880       1.491e+01       2.089e+01       8.652e-02          -0.083           0.082          -0.993       1.984e-01         -0.2354
 881       1.465e+01       2.089e+01       1.166e-01          -0.158           0.129          -0.979       1.527e-01         -0.2404
 882       1.447e+01       2.089e+01       1.595e-01          -0.330           0.243          -0.912       1.021e-01         -0.1737
 883       1.438e+01       2.089e+01       2.198e-01          -0.722           0.502          -0.475       6.610e-02          0.5124
 884       1.438e+01       2.089e+01       2.906e-01          -0.723           0.491           0.486       6.601e-02          0.2872
 885       1.447e+01       2.089e+01       3.512e-01          -0.332           0.222           0.917       1.021e-01         -0.5057
 886       1.465e+01       2.089e+01       3.934e-01          -0.151           0.101           0.983       1.523e-01         -0.4369
 887       1.491e+01       2.089e+01       4.226e-01          -0.082           0.056           0.995       1.982e-01         -0.3550
 888       1.523e+01       2.089e+01       4.411e-01          -0.037           0.029           0.999       2.335e-01         -0.3179
 889       1.559e+01       2.089e+01       4.484e-01          -0.005           0.010           1.000       2.557e-01         -0.2946
 890       1.597e+01       2.089e+01       4.438e-01           0.028          -0.008           1.000       2.634e-01         -0.2790
 891       1.636e+01       2.089e+01       4.247e-01           0.071          -0.029           0.997       2.563e-01         -0.2440
 892       1.672e+01       2.089e+01       3.924e-01           0.108          -0.047           0.993       2.347e-01         -0.1773
 893       1.704e+01       2.089e+01       3.539e-01           0.133          -0.058           0.989       1.991e-01         -0.1081
 894       1.730e+01       2.089e+01       3.170e-01           0.153          -0.065           0.986       1.516e-01         -0.0540
 895       1.748e+01       2.089e+01       2.875e-01           0.174          -0.073           0.982       9.503e-02         -0.0333
 896       1.757e+01       2.089e+01       2.661e-01           0.357          -0.139           0.924       3.432e-02          0.0678
Strip 35
 897       1.779e+01       2.149e+01       2.637e-01           0.026           0.003          -1.000       2.341e-02          0.1207
 898       1.770e+01       2.149e+01       2.691e-01          -0.091           0.045          -0.995       6.916e-02          0.2254
 899       1.753e+01       2.149e+01       2.716e-01           0.033          -0.002          -0.999       1.103e-01          0.2946
 900       1.729e+01       2.149e+01       2.483e-01           0.143          -0.046          -0.989       1.470e-01          0.2325
 901       1.699e+01       2.149e+01       1.980e-01           0.184          -0.063          -0.981       1.754e-01          0.0885
 902       1.665e+01       2.149e+01       1.394e-01           0.156          -0.050          -0.986       1.912e-01         -0.0916
 903       1.629e+01       2.149e+01       9.773e-02           0.073          -0.008          -0.997       1.947e-01         -0.2148
 904       1.593e+01       2.149e+01       8.258e-02           0.010           0.026          -1.000       1.886e-01         -0.2398
 905       1.559e+01       2.149e+01       8.677e-02          -0.036           0.053          -0.998       1.722e-01         -0.2384
 906       1.529e+01       2.149e+01       1.042e-01          -0.083           0.082          -0.993       1.462e-01         -0.2396
 907       1.504e+01       2.149e+01       1.324e-01          -0.158           0.129          -0.979       1.125e-01         -0.2471
 908       1.488e+01       2.149e+01       1.726e-01          -0.330           0.243          -0.912       7.526e-02         -0.1838
 909       1.479e+01       2.149e+01       2.293e-01          -0.723           0.502          -0.475       4.871e-02          0.5033
 910       1.479e+01       2.149e+01       2.958e-01          -0.723           0.491           0.486       4.867e-02          0.2866
 911       1.488e+01       2.149e+01       3.527e-01          -0.332           0.222           0.917       7.527e-02         -0.5010
 912       1.504e+01       2.149e+01       3.923e-01          -0.151           0.101           0.983       1.123e-01         -0.4317
 913       1.529e+01       2.149e+01       4.197e-01          -0.082           0.056           0.995       1.461e-01         -0.3479
 914       1.559e+01       2.149e+01       4.371e-01          -0.037           0.029           0.999       1.721e-01         -0.3064
 915       1.593e+01       2.149e+01       4.440e-01          -0.005           0.010           1.000       1.885e-01         -0.2781
 916       1.629e+01       2.149e+01       4.396e-01           0.028          -0.008           1.000       1.941e-01         -0.2594
 917       1.665e+01       2.149e+01       4.217e-01           0.071          -0.029           0.997       1.889e-01         -0.2245
 918       1.699e+01       2.149e+01       3.914e-01           0.108          -0.047           0.993       1.730e-01         -0.1607
 919       1.729e+01       2.149e+01       3.552e-01           0.133          -0.058           0.989       1.468e-01         -0.0960
 920       1.753e+01       2.149e+01       3.205e-01           0.153          -0.065           0.986       1.117e-01         -0.0465
 921       1.770e+01       2.149e+01       2.929e-01           0.174          -0.073           0.982       7.004e-02         -0.0299
 922       1.779e+01       2.149e+01       2.728e-01           0.357          -0.139           0.924       2.529e-02          0.0699
Strip 36
 923       1.795e+01       2.195e+01       2.692e-01           0.026           0.003          -1.000       1.601e-02          0.1080
 924       1.787e+01       2.195e+01       2.743e-01          -0.091           0.045          -0.995       4.730e-02          0.2122
 925       1.771e+01       2.195e+01       2.767e-01           0.033          -0.002          -0.999       7.546e-02          0.2828
 926       1.748e+01       2.195e+01       2.546e-01           0.143          -0.046          -0.989       1.006e-01          0.2263
 927       1.719e+01       2.195e+01       2.068e-01           0.184          -0.063          -0.981       1.199e-01          0.0914
 928       1.687e+01       2.195e+01       1.510e-01           0.156          -0.050          -0.986       1.308e-01         -0.0782
 929       1.653e+01       2.195e+01       1.114e-01           0.073          -0.008          -0.997       1.332e-01         -0.1944
 930       1.618e+01       2.195e+01       9.698e-02           0.010           0.026          -1.000       1.290e-01         -0.2203
 931       1.586e+01       2.195e+01       1.010e-01          -0.036           0.053          -0.998       1.178e-01         -0.2278
 932       1.557e+01       2.195e+01       1.175e-01          -0.083           0.082          -0.993       9.999e-02         -0.2425
 933       1.534e+01       2.195e+01       1.444e-01          -0.158           0.129          -0.979       7.694e-02         -0.2604
 934       1.518e+01       2.195e+01       1.826e-01          -0.330           0.243          -0.912       5.146e-02         -0.2064
 935       1.510e+01       2.195e+01       2.365e-01          -0.723           0.502          -0.475       3.331e-02          0.4794
 936       1.510e+01       2.195e+01       2.998e-01          -0.723           0.491           0.486       3.329e-02          0.2787
 937       1.518e+01       2.195e+01       3.538e-01          -0.332           0.222           0.917       5.148e-02         -0.4969
 938       1.534e+01       2.195e+01       3.915e-01          -0.151           0.101           0.983       7.677e-02         -0.4233
 939       1.557e+01       2.195e+01       4.175e-01          -0.082           0.056           0.995       9.990e-02         -0.3315
 940       1.586e+01       2.195e+01       4.341e-01          -0.037           0.029           0.999       1.177e-01         -0.2791
 941       1.618e+01       2.194e+01       4.406e-01          -0.005           0.010           1.000       1.289e-01         -0.2447
 942       1.653e+01       2.194e+01       4.365e-01           0.028          -0.008           1.000       1.328e-01         -0.2255
 943       1.687e+01       2.195e+01       4.195e-01           0.071          -0.029           0.997       1.292e-01         -0.1942
 944       1.719e+01       2.195e+01       3.906e-01           0.108          -0.047           0.993       1.183e-01         -0.1377
 945       1.748e+01       2.195e+01       3.562e-01           0.133          -0.058           0.989       1.004e-01         -0.0818
 946       1.771e+01       2.195e+01       3.233e-01           0.153          -0.065           0.986       7.642e-02         -0.0415
 947       1.787e+01       2.195e+01       2.969e-01           0.174          -0.073           0.982       4.790e-02         -0.0346
 948       1.795e+01       2.195e+01       2.779e-01           0.357          -0.139           0.924       1.730e-02          0.0621
Strip 37
 949       1.806e+01       2.225e+01       2.729e-01           0.026           0.003          -1.000       9.314e-03          0.0653
 950       1.798e+01       2.225e+01       2.778e-01          -0.091           0.045          -0.995       2.752e-02          0.1649
 951       1.783e+01       2.225e+01       2.801e-01           0.033          -0.002          -0.999       4.391e-02          0.2388
 952       1.760e+01       2.225e+01       2.588e-01           0.143          -0.046          -0.989       5.852e-02          0.1970
 953       1.733e+01       2.225e+01       2.126e-01           0.184          -0.063          -0.981       6.979e-02          0.0829
 954       1.702e+01       2.225e+01       1.588e-01           0.156          -0.050          -0.986       7.610e-02         -0.0636
 955       1.668e+01       2.225e+01       1.205e-01           0.073          -0.008          -0.997       7.749e-02         -0.1625
 956       1.635e+01       2.225e+01       1.066e-01           0.010           0.026          -1.000       7.504e-02         -0.1827
 957       1.604e+01       2.225e+01       1.105e-01          -0.036           0.053          -0.998       6.852e-02         -0.1925
 958       1.577e+01       2.225e+01       1.264e-01          -0.083           0.082          -0.993       5.818e-02         -0.2216
 959       1.554e+01       2.225e+01       1.524e-01          -0.158           0.129          -0.979       4.477e-02         -0.2711
 960       1.539e+01       2.225e+01       1.893e-01          -0.330           0.243          -0.912       2.994e-02         -0.2565
 961       1.531e+01       2.225e+01       2.414e-01          -0.723           0.502          -0.475       1.938e-02          0.3944
 962       1.531e+01       2.225e+01       3.024e-01          -0.723           0.491           0.486       1.937e-02          0.2241
 963       1.539e+01       2.225e+01       3.546e-01          -0.332           0.222           0.917       2.996e-02         -0.4993
 964       1.554e+01       2.225e+01       3.910e-01          -0.151           0.101           0.983       4.467e-02         -0.3977
 965       1.577e+01       2.225e+01       4.161e-01          -0.082           0.056           0.995       5.813e-02         -0.2851
 966       1.604e+01       2.225e+01       4.320e-01          -0.037           0.029           0.999       6.848e-02         -0.2279
 967       1.635e+01       2.225e+01       4.384e-01          -0.005           0.010           1.000       7.500e-02         -0.1976
 968       1.668e+01       2.225e+01       4.344e-01           0.028          -0.008           1.000       7.725e-02         -0.1829
 969       1.702e+01       2.225e+01       4.180e-01           0.071          -0.029           0.997       7.518e-02         -0.1580
 970       1.733e+01       2.225e+01       3.901e-01           0.108          -0.047           0.993       6.883e-02         -0.1134
 971       1.760e+01       2.225e+01       3.569e-01           0.133          -0.058           0.989       5.839e-02         -0.0746
 972       1.783e+01       2.225e+01       3.251e-01           0.153          -0.065           0.986       4.447e-02         -0.0539
 973       1.798e+01       2.225e+01       2.997e-01           0.174          -0.073           0.982       2.787e-02         -0.0695
 974       1.806e+01       2.225e+01       2.812e-01           0.357          -0.139           0.924       1.006e-02          0.0216
Strip 38
 975       1.812e+01       2.240e+01       2.747e-01           0.026           0.003          -1.000       3.056e-03          0.0107
 976       1.804e+01       2.240e+01       2.796e-01          -0.091           0.045          -0.995       9.029e-03          0.0880
 977       1.789e+01       2.240e+01       2.819e-01           0.033          -0.002          -0.999       1.441e-02          0.1498
 978       1.767e+01       2.241e+01       2.609e-01           0.143          -0.046          -0.989       1.920e-02          0.1292
 979       1.740e+01       2.241e+01       2.156e-01           0.184          -0.063          -0.981       2.290e-02          0.0528
 980       1.709e+01       2.241e+01       1.627e-01           0.156          -0.050          -0.986       2.497e-02         -0.0530
 981       1.676e+01       2.241e+01       1.251e-01           0.073          -0.008          -0.997       2.542e-02         -0.1265
 982       1.644e+01       2.241e+01       1.115e-01           0.010           0.026          -1.000       2.462e-02         -0.1426
 983       1.613e+01       2.241e+01       1.153e-01          -0.036           0.053          -0.998       2.248e-02         -0.1506
 984       1.586e+01       2.241e+01       1.309e-01          -0.083           0.082          -0.993       1.909e-02         -0.1736
 985       1.564e+01       2.241e+01       1.564e-01          -0.158           0.129          -0.979       1.469e-02         -0.2250
 986       1.549e+01       2.241e+01       1.927e-01          -0.330           0.243          -0.912       9.823e-03         -0.2520
 987       1.541e+01       2.241e+01       2.438e-01          -0.723           0.502          -0.474       6.357e-03          0.3175
 988       1.541e+01       2.240e+01       3.037e-01          -0.723           0.491           0.487       6.356e-03          0.1852
 989       1.549e+01       2.240e+01       3.550e-01          -0.332           0.222           0.917       9.830e-03         -0.4415
 990       1.564e+01       2.240e+01       3.907e-01          -0.151           0.101           0.983       1.466e-02         -0.3194
 991       1.586e+01       2.240e+01       4.154e-01          -0.082           0.056           0.995       1.907e-02         -0.2215
 992       1.613e+01       2.240e+01       4.310e-01          -0.037           0.029           0.999       2.247e-02         -0.1800
 993       1.644e+01       2.240e+01       4.373e-01          -0.005           0.010           1.000       2.460e-02         -0.1576
 994       1.676e+01       2.240e+01       4.333e-01           0.028          -0.008           1.000       2.535e-02         -0.1444
 995       1.709e+01       2.240e+01       4.172e-01           0.071          -0.029           0.997       2.467e-02         -0.1213
 996       1.740e+01       2.240e+01       3.898e-01           0.108          -0.047           0.993       2.258e-02         -0.0815
 997       1.767e+01       2.240e+01       3.572e-01           0.133          -0.058           0.989       1.916e-02         -0.0504
 998       1.789e+01       2.240e+01       3.260e-01           0.153          -0.065           0.986       1.459e-02         -0.0467
 999       1.804e+01       2.240e+01       3.010e-01           0.174          -0.073           0.982       9.143e-03         -0.0902
1000       1.812e+01       2.240e+01       2.829e-01           0.357          -0.139           0.924       3.302e-03         -0.0116










